Using: /cae/apps/data/synopsys-2025/hspice/X-2025.06/hspice/linux64/hspice test_neuron.sp
 ****** PrimeSim HSPICE -- X-2025.06 linux64 (May 22 2025 9830940) ******
  Copyright (c) 1986 - 2025 by Synopsys, Inc. All Rights Reserved.
  This software and the associated documentation are proprietary
  to Synopsys, Inc. This software may only be used in accordance
  with the terms and conditions of a written license agreement with
  Synopsys, Inc. All other use, reproduction, or distribution of
  this software is strictly prohibited.
  Input File: test_neuron.sp                                                    
  Command line options: /cae/apps/data/synopsys-2025/hspice/X-2025.06/hspice/linux64/hspice test_neuron.sp
  Start time: Fri Dec 12 12:50:33 2025
 lic:  
 lic: FLEXlm: SDK_14.10 
 lic: USER:   cadiena              HOSTNAME: linux-2618 
 lic: HOSTID: 7f0101               PID:      1062649 
 lic: Using FLEXlm license file: 
 lic: 27180@synopsys.license.cae.wisc.edu 
 lic: Checkout 1 hspice 
 lic: License/Maintenance for hspice will expire on 23-jan-2027/2024.09 
 lic: 1(in_use)/50(total) FLOATING license(s) on SERVER 27180@synopsys.license.cae.wisc.edu 
 lic:   
  **warning** multiple output options specified, using post
  **warning** pivtol too large ** reset to half minimum value of (gmindc,gmin)
1****** PrimeSim HSPICE -- X-2025.06 linux64 (May 22 2025 9830940) ******
 ******  
 **test

 ****** circuit name directory
 circuit number to circuit name directory
   number circuitname                     definition         multiplier
        0 main circuit
        1 x_dut.                          neuron             1.00 
        2 x_dut.x_pm_neuron_vss.          pm_neuron_vss      1.00 
        3 x_dut.x_pm_neuron_vdd.          pm_neuron_vdd      1.00 
        4 x_dut.x_pm_neuron_w0<1>.        pm_neuron_w0<1>    1.00 
        5 x_dut.x_pm_neuron_x0<1>.        pm_neuron_x0<1>    1.00 
        6 x_dut.x_pm_neuron_xi2.net7.     pm_neuron_xi2.net7
                                                                 1.00 
        7 x_dut.x_pm_neuron_xi2.net10.    pm_neuron_xi2.net10
                                                                 1.00 
        8 x_dut.x_pm_neuron_net2<1>.      pm_neuron_net2<1>
                                                                 1.00 
        9 x_dut.x_pm_neuron_net2<0>.      pm_neuron_net2<0>
                                                                 1.00 
       10 x_dut.x_pm_neuron_xi4.net8.     pm_neuron_xi4.net8
                                                                 1.00 
       11 x_dut.x_pm_neuron_net3<1>.      pm_neuron_net3<1>
                                                                 1.00 
       12 x_dut.x_pm_neuron_net3<0>.      pm_neuron_net3<0>
                                                                 1.00 
       13 x_dut.x_pm_neuron_xi2.net24.    pm_neuron_xi2.net24
                                                                 1.00 
       14 x_dut.x_pm_neuron_w0<0>.        pm_neuron_w0<0>    1.00 
       15 x_dut.x_pm_neuron_xi2.net29.    pm_neuron_xi2.net29
                                                                 1.00 
       16 x_dut.x_pm_neuron_xi4.xi8.xi2.net1.
                                            pm_neuron_xi4.xi8.xi2.net1
                                                                 1.00 
       17 x_dut.x_pm_neuron_x0<0>.        pm_neuron_x0<0>    1.00 
       18 x_dut.x_pm_neuron_xi2.xi2.net2. pm_neuron_xi2.xi2.net2
                                                                 1.00 
       19 x_dut.x_pm_neuron_xi4.net4.     pm_neuron_xi4.net4
                                                                 1.00 
       20 x_dut.x_pm_neuron_xi4.xi8.xi2.net8.
                                            pm_neuron_xi4.xi8.xi2.net8
                                                                 1.00 
       21 x_dut.x_pm_neuron_xi3.xi3.net2. pm_neuron_xi3.xi3.net2
                                                                 1.00 
       22 x_dut.x_pm_neuron_xi4.xi8.xi2.net13.
                                            pm_neuron_xi4.xi8.xi2.net13
                                                                 1.00 
       23 x_dut.x_pm_neuron_xi2.net17.    pm_neuron_xi2.net17
                                                                 1.00 
       24 x_dut.x_pm_neuron_xi3.net17.    pm_neuron_xi3.net17
                                                                 1.00 
       25 x_dut.x_pm_neuron_xi2.xi3.net2. pm_neuron_xi2.xi3.net2
                                                                 1.00 
       26 x_dut.x_pm_neuron_xi4.xi8.net12.
                                            pm_neuron_xi4.xi8.net12
                                                                 1.00 
       27 x_dut.x_pm_neuron_xi3.xi2.net2. pm_neuron_xi3.xi2.net2
                                                                 1.00 
       28 x_dut.x_pm_neuron_xi4.xi8.xi3.net1.
                                            pm_neuron_xi4.xi8.xi3.net1
                                                                 1.00 
       29 x_dut.x_pm_neuron_xi3.net29.    pm_neuron_xi3.net29
                                                                 1.00 
       30 x_dut.x_pm_neuron_xi4.xi8.net4. pm_neuron_xi4.xi8.net4
                                                                 1.00 
       31 x_dut.x_pm_neuron_w1<0>.        pm_neuron_w1<0>    1.00 
       32 x_dut.x_pm_neuron_xi3.net24.    pm_neuron_xi3.net24
                                                                 1.00 
       33 x_dut.x_pm_neuron_x1<0>.        pm_neuron_x1<0>    1.00 
       34 x_dut.x_pm_neuron_xi4.net5.     pm_neuron_xi4.net5
                                                                 1.00 
       35 x_dut.x_pm_neuron_xi4.xi8.xi3.net8.
                                            pm_neuron_xi4.xi8.xi3.net8
                                                                 1.00 
       36 x_dut.x_pm_neuron_xi4.xi8.xi3.net13.
                                            pm_neuron_xi4.xi8.xi3.net13
                                                                 1.00 
       37 x_dut.x_pm_neuron_w1<1>.        pm_neuron_w1<1>    1.00 
       38 x_dut.x_pm_neuron_x1<1>.        pm_neuron_x1<1>    1.00 
       39 x_dut.x_pm_neuron_xi3.net10.    pm_neuron_xi3.net10
                                                                 1.00 
       40 x_dut.x_pm_neuron_xi3.net7.     pm_neuron_xi3.net7
                                                                 1.00 
       41 x_dut.x_pm_neuron_w2<0>.        pm_neuron_w2<0>    1.00 
       42 x_dut.x_pm_neuron_w2<1>.        pm_neuron_w2<1>    1.00 
       43 x_dut.x_pm_neuron_w2<2>.        pm_neuron_w2<2>    1.00 
       44 x_dut.x_pm_neuron_xi5.net1.     pm_neuron_xi5.net1
                                                                 1.00 
       45 x_dut.x_pm_neuron_net4<2>.      pm_neuron_net4<2>
                                                                 1.00 
       46 x_dut.x_pm_neuron_net4<1>.      pm_neuron_net4<1>
                                                                 1.00 
       47 x_dut.x_pm_neuron_net4<0>.      pm_neuron_net4<0>
                                                                 1.00 
       48 x_dut.x_pm_neuron_xi5.xi7.xi2.net1.
                                            pm_neuron_xi5.xi7.xi2.net1
                                                                 1.00 
       49 x_dut.x_pm_neuron_xi5.xi9.xi4.net1.
                                            pm_neuron_xi5.xi9.xi4.net1
                                                                 1.00 
       50 x_dut.x_pm_neuron_xi5.net13.    pm_neuron_xi5.net13
                                                                 1.00 
       51 x_dut.x_pm_neuron_xi5.xi7.xi2.net8.
                                            pm_neuron_xi5.xi7.xi2.net8
                                                                 1.00 
       52 x_dut.x_pm_neuron_xi5.xi9.xi4.net8.
                                            pm_neuron_xi5.xi9.xi4.net8
                                                                 1.00 
       53 x_dut.x_pm_neuron_xi5.xi7.xi2.net13.
                                            pm_neuron_xi5.xi7.xi2.net13
                                                                 1.00 
       54 x_dut.x_pm_neuron_xi5.xi9.xi4.net13.
                                            pm_neuron_xi5.xi9.xi4.net13
                                                                 1.00 
       55 x_dut.x_pm_neuron_xi5.net9.     pm_neuron_xi5.net9
                                                                 1.00 
       56 x_dut.x_pm_neuron_xi5.xi7.net12.
                                            pm_neuron_xi5.xi7.net12
                                                                 1.00 
       57 x_dut.x_pm_neuron_xi5.xi9.net1. pm_neuron_xi5.xi9.net1
                                                                 1.00 
       58 x_dut.x_pm_neuron_xi5.xi7.xi3.net1.
                                            pm_neuron_xi5.xi7.xi3.net1
                                                                 1.00 
       59 x_dut.x_pm_neuron_xi5.xi9.xi5.net1.
                                            pm_neuron_xi5.xi9.xi5.net1
                                                                 1.00 
       60 x_dut.x_pm_neuron_xi5.xi7.net4. pm_neuron_xi5.xi7.net4
                                                                 1.00 
       61 x_dut.x_pm_neuron_xi5.net4.     pm_neuron_xi5.net4
                                                                 1.00 
       62 x_dut.x_pm_neuron_xi5.xi7.xi3.net8.
                                            pm_neuron_xi5.xi7.xi3.net8
                                                                 1.00 
       63 x_dut.x_pm_neuron_xi5.xi9.xi5.net8.
                                            pm_neuron_xi5.xi9.xi5.net8
                                                                 1.00 
       64 x_dut.x_pm_neuron_xi5.xi7.xi3.net13.
                                            pm_neuron_xi5.xi7.xi3.net13
                                                                 1.00 
       65 x_dut.x_pm_neuron_xi5.xi9.xi5.net13.
                                            pm_neuron_xi5.xi9.xi5.net13
                                                                 1.00 
       66 x_dut.x_pm_neuron_net7<2>.      pm_neuron_net7<2>
                                                                 1.00 
       67 x_dut.x_pm_neuron_net7<1>.      pm_neuron_net7<1>
                                                                 1.00 
       68 x_dut.x_pm_neuron_net7<0>.      pm_neuron_net7<0>
                                                                 1.00 
       69 x_dut.x_pm_neuron_xi6.net2.     pm_neuron_xi6.net2
                                                                 1.00 
       70 x_dut.x_pm_neuron_xi6.xi2.net2. pm_neuron_xi6.xi2.net2
                                                                 1.00 
       71 x_dut.x_pm_neuron_xi6.xi1.net2. pm_neuron_xi6.xi1.net2
                                                                 1.00 
       72 x_dut.x_pm_neuron_xi4.xi8.xi0.net23.
                                            pm_neuron_xi4.xi8.xi0.net23
                                                                 1.00 
       73 x_dut.x_pm_neuron_xi4.xi8.xi0.net1.
                                            pm_neuron_xi4.xi8.xi0.net1
                                                                 1.00 
       74 x_dut.x_pm_neuron_xi4.xi5.net6. pm_neuron_xi4.xi5.net6
                                                                 1.00 
       75 x_dut.x_pm_neuron_xi5.xi7.xi0.net23.
                                            pm_neuron_xi5.xi7.xi0.net23
                                                                 1.00 
       76 x_dut.x_pm_neuron_xi5.xi7.xi0.net1.
                                            pm_neuron_xi5.xi7.xi0.net1
                                                                 1.00 
       77 x_dut.x_pm_neuron_xi5.xi8.net6. pm_neuron_xi5.xi8.net6
                                                                 1.00 
       78 x_dut.x_pm_neuron_z<2>.         pm_neuron_z<2>     1.00 
       79 x_dut.x_pm_neuron_z<0>.         pm_neuron_z<0>     1.00 
       80 x_dut.x_pm_neuron_z<1>.         pm_neuron_z<1>     1.00 
       81 x_dut.x_pm_neuron_xi2.xi4.net7. pm_neuron_xi2.xi4.net7
                                                                 1.00 
       82 x_dut.x_pm_neuron_xi2.xi5.net7. pm_neuron_xi2.xi5.net7
                                                                 1.00 
       83 x_dut.x_pm_neuron_xi2.xi4.net1. pm_neuron_xi2.xi4.net1
                                                                 1.00 
       84 x_dut.x_pm_neuron_xi2.xi5.net1. pm_neuron_xi2.xi5.net1
                                                                 1.00 
       85 x_dut.x_pm_neuron_xi4.xi5.xi0.net1.
                                            pm_neuron_xi4.xi5.xi0.net1
                                                                 1.00 
       86 x_dut.x_pm_neuron_xi4.xi8.xi2.xi7.net1.
                                            pm_neuron_xi4.xi8.xi2.xi7.net1
                                                                 1.00 
       87 x_dut.x_pm_neuron_xi4.xi8.xi2.xi9.net1.
                                            pm_neuron_xi4.xi8.xi2.xi9.net1
                                                                 1.00 
       88 x_dut.x_pm_neuron_xi2.xi6.net7. pm_neuron_xi2.xi6.net7
                                                                 1.00 
       89 x_dut.x_pm_neuron_xi2.xi2.net1__2.
                                            pm_neuron_xi2.xi2.net1__2
                                                                 1.00 
       90 x_dut.x_pm_neuron_xi4.xi5.xi0.net7.
                                            pm_neuron_xi4.xi5.xi0.net7
                                                                 1.00 
       91 x_dut.x_pm_neuron_xi4.xi8.xi2.xi7.net7.
                                            pm_neuron_xi4.xi8.xi2.xi7.net7
                                                                 1.00 
       92 x_dut.x_pm_neuron_xi4.xi8.xi2.xi9.net7.
                                            pm_neuron_xi4.xi8.xi2.xi9.net7
                                                                 1.00 
       93 x_dut.x_pm_neuron_xi2.xi6.net1. pm_neuron_xi2.xi6.net1
                                                                 1.00 
       94 x_dut.x_pm_neuron_xi2.xi2.net1. pm_neuron_xi2.xi2.net1
                                                                 1.00 
       95 x_dut.x_pm_neuron_xi4.xi8.xi2.xi8.net1.
                                            pm_neuron_xi4.xi8.xi2.xi8.net1
                                                                 1.00 
       96 x_dut.x_pm_neuron_xi4.xi8.xi2.xi10.net7.
                                            pm_neuron_xi4.xi8.xi2.xi10.net7
                                                                 1.00 
       97 x_dut.x_pm_neuron_xi2.xi3.net1__2.
                                            pm_neuron_xi2.xi3.net1__2
                                                                 1.00 
       98 x_dut.x_pm_neuron_xi4.xi8.xi2.xi8.net7.
                                            pm_neuron_xi4.xi8.xi2.xi8.net7
                                                                 1.00 
       99 x_dut.x_pm_neuron_xi3.xi3.net1__2.
                                            pm_neuron_xi3.xi3.net1__2
                                                                 1.00 
      100 x_dut.x_pm_neuron_xi4.xi8.xi0.net13__2.
                                            pm_neuron_xi4.xi8.xi0.net13__2
                                                                 1.00 
      101 x_dut.x_pm_neuron_xi4.xi8.xi2.xi10.net1.
                                            pm_neuron_xi4.xi8.xi2.xi10.net1
                                                                 1.00 
      102 x_dut.x_pm_neuron_xi2.xi3.net1. pm_neuron_xi2.xi3.net1
                                                                 1.00 
      103 x_dut.x_pm_neuron_xi3.xi3.net1. pm_neuron_xi3.xi3.net1
                                                                 1.00 
      104 x_dut.x_pm_neuron_xi4.xi8.xi0.net13.
                                            pm_neuron_xi4.xi8.xi0.net13
                                                                 1.00 
      105 x_dut.x_pm_neuron_xi4.xi8.xi3.xi7.net1.
                                            pm_neuron_xi4.xi8.xi3.xi7.net1
                                                                 1.00 
      106 x_dut.x_pm_neuron_xi4.xi8.xi3.xi9.net1.
                                            pm_neuron_xi4.xi8.xi3.xi9.net1
                                                                 1.00 
      107 x_dut.x_pm_neuron_xi4.xi8.xi3.xi7.net7.
                                            pm_neuron_xi4.xi8.xi3.xi7.net7
                                                                 1.00 
      108 x_dut.x_pm_neuron_xi3.xi2.net1__2.
                                            pm_neuron_xi3.xi2.net1__2
                                                                 1.00 
      109 x_dut.x_pm_neuron_xi3.xi6.net1. pm_neuron_xi3.xi6.net1
                                                                 1.00 
      110 x_dut.x_pm_neuron_xi4.xi8.xi3.xi9.net7.
                                            pm_neuron_xi4.xi8.xi3.xi9.net7
                                                                 1.00 
      111 x_dut.x_pm_neuron_xi3.xi2.net1. pm_neuron_xi3.xi2.net1
                                                                 1.00 
      112 x_dut.x_pm_neuron_xi3.xi6.net7. pm_neuron_xi3.xi6.net7
                                                                 1.00 
      113 x_dut.x_pm_neuron_xi4.xi8.xi3.xi8.net1.
                                            pm_neuron_xi4.xi8.xi3.xi8.net1
                                                                 1.00 
      114 x_dut.x_pm_neuron_xi4.xi8.xi3.xi10.net7.
                                            pm_neuron_xi4.xi8.xi3.xi10.net7
                                                                 1.00 
      115 x_dut.x_pm_neuron_xi4.xi8.xi3.xi8.net7.
                                            pm_neuron_xi4.xi8.xi3.xi8.net7
                                                                 1.00 
      116 x_dut.x_pm_neuron_xi3.xi5.net1. pm_neuron_xi3.xi5.net1
                                                                 1.00 
      117 x_dut.x_pm_neuron_xi3.xi4.net1. pm_neuron_xi3.xi4.net1
                                                                 1.00 
      118 x_dut.x_pm_neuron_xi4.xi8.xi3.xi10.net1.
                                            pm_neuron_xi4.xi8.xi3.xi10.net1
                                                                 1.00 
      119 x_dut.x_pm_neuron_xi3.xi5.net7. pm_neuron_xi3.xi5.net7
                                                                 1.00 
      120 x_dut.x_pm_neuron_xi3.xi4.net7. pm_neuron_xi3.xi4.net7
                                                                 1.00 
      121 x_dut.x_pm_neuron_xi5.xi8.xi0.net1.
                                            pm_neuron_xi5.xi8.xi0.net1
                                                                 1.00 
      122 x_dut.x_pm_neuron_xi5.xi7.xi2.xi7.net1.
                                            pm_neuron_xi5.xi7.xi2.xi7.net1
                                                                 1.00 
      123 x_dut.x_pm_neuron_xi5.xi9.xi4.xi7.net1.
                                            pm_neuron_xi5.xi9.xi4.xi7.net1
                                                                 1.00 
      124 x_dut.x_pm_neuron_xi5.xi7.xi2.xi9.net1.
                                            pm_neuron_xi5.xi7.xi2.xi9.net1
                                                                 1.00 
      125 x_dut.x_pm_neuron_xi5.xi9.xi4.xi9.net1.
                                            pm_neuron_xi5.xi9.xi4.xi9.net1
                                                                 1.00 
      126 x_dut.x_pm_neuron_xi5.xi8.xi0.net7.
                                            pm_neuron_xi5.xi8.xi0.net7
                                                                 1.00 
      127 x_dut.x_pm_neuron_xi5.xi7.xi2.xi7.net7.
                                            pm_neuron_xi5.xi7.xi2.xi7.net7
                                                                 1.00 
      128 x_dut.x_pm_neuron_xi5.xi9.xi4.xi7.net7.
                                            pm_neuron_xi5.xi9.xi4.xi7.net7
                                                                 1.00 
      129 x_dut.x_pm_neuron_xi5.xi7.xi2.xi9.net7.
                                            pm_neuron_xi5.xi7.xi2.xi9.net7
                                                                 1.00 
      130 x_dut.x_pm_neuron_xi5.xi9.xi4.xi9.net7.
                                            pm_neuron_xi5.xi9.xi4.xi9.net7
                                                                 1.00 
      131 x_dut.x_pm_neuron_xi5.xi7.xi2.xi8.net1.
                                            pm_neuron_xi5.xi7.xi2.xi8.net1
                                                                 1.00 
      132 x_dut.x_pm_neuron_xi5.xi9.xi4.xi8.net1.
                                            pm_neuron_xi5.xi9.xi4.xi8.net1
                                                                 1.00 
      133 x_dut.x_pm_neuron_xi5.xi7.xi2.xi10.net7.
                                            pm_neuron_xi5.xi7.xi2.xi10.net7
                                                                 1.00 
      134 x_dut.x_pm_neuron_xi5.xi9.xi4.xi10.net7.
                                            pm_neuron_xi5.xi9.xi4.xi10.net7
                                                                 1.00 
      135 x_dut.x_pm_neuron_xi5.xi7.xi2.xi8.net7.
                                            pm_neuron_xi5.xi7.xi2.xi8.net7
                                                                 1.00 
      136 x_dut.x_pm_neuron_xi5.xi9.xi4.xi8.net7.
                                            pm_neuron_xi5.xi9.xi4.xi8.net7
                                                                 1.00 
      137 x_dut.x_pm_neuron_xi5.xi7.xi0.net13__2.
                                            pm_neuron_xi5.xi7.xi0.net13__2
                                                                 1.00 
      138 x_dut.x_pm_neuron_xi5.xi7.xi2.xi10.net1.
                                            pm_neuron_xi5.xi7.xi2.xi10.net1
                                                                 1.00 
      139 x_dut.x_pm_neuron_xi5.xi9.xi4.xi10.net1.
                                            pm_neuron_xi5.xi9.xi4.xi10.net1
                                                                 1.00 
      140 x_dut.x_pm_neuron_xi5.xi7.xi0.net13.
                                            pm_neuron_xi5.xi7.xi0.net13
                                                                 1.00 
      141 x_dut.x_pm_neuron_xi5.xi7.xi3.xi7.net1.
                                            pm_neuron_xi5.xi7.xi3.xi7.net1
                                                                 1.00 
      142 x_dut.x_pm_neuron_xi5.xi9.xi5.xi7.net1.
                                            pm_neuron_xi5.xi9.xi5.xi7.net1
                                                                 1.00 
      143 x_dut.x_pm_neuron_xi5.xi7.xi3.xi9.net1.
                                            pm_neuron_xi5.xi7.xi3.xi9.net1
                                                                 1.00 
      144 x_dut.x_pm_neuron_xi5.xi9.xi5.xi9.net1.
                                            pm_neuron_xi5.xi9.xi5.xi9.net1
                                                                 1.00 
      145 x_dut.x_pm_neuron_xi5.xi7.xi3.xi7.net7.
                                            pm_neuron_xi5.xi7.xi3.xi7.net7
                                                                 1.00 
      146 x_dut.x_pm_neuron_xi5.xi9.xi5.xi7.net7.
                                            pm_neuron_xi5.xi9.xi5.xi7.net7
                                                                 1.00 
      147 x_dut.x_pm_neuron_xi5.xi7.xi3.xi9.net7.
                                            pm_neuron_xi5.xi7.xi3.xi9.net7
                                                                 1.00 
      148 x_dut.x_pm_neuron_xi5.xi9.xi5.xi9.net7.
                                            pm_neuron_xi5.xi9.xi5.xi9.net7
                                                                 1.00 
      149 x_dut.x_pm_neuron_xi5.xi7.xi3.xi8.net1.
                                            pm_neuron_xi5.xi7.xi3.xi8.net1
                                                                 1.00 
      150 x_dut.x_pm_neuron_xi5.xi9.xi5.xi8.net1.
                                            pm_neuron_xi5.xi9.xi5.xi8.net1
                                                                 1.00 
      151 x_dut.x_pm_neuron_xi5.xi7.xi3.xi10.net7.
                                            pm_neuron_xi5.xi7.xi3.xi10.net7
                                                                 1.00 
      152 x_dut.x_pm_neuron_xi5.xi9.xi5.xi10.net7.
                                            pm_neuron_xi5.xi9.xi5.xi10.net7
                                                                 1.00 
      153 x_dut.x_pm_neuron_xi5.xi7.xi3.xi8.net7.
                                            pm_neuron_xi5.xi7.xi3.xi8.net7
                                                                 1.00 
      154 x_dut.x_pm_neuron_xi5.xi9.xi5.xi8.net7.
                                            pm_neuron_xi5.xi9.xi5.xi8.net7
                                                                 1.00 
      155 x_dut.x_pm_neuron_xi5.xi7.xi3.xi10.net1.
                                            pm_neuron_xi5.xi7.xi3.xi10.net1
                                                                 1.00 
      156 x_dut.x_pm_neuron_xi5.xi9.xi5.xi10.net1.
                                            pm_neuron_xi5.xi9.xi5.xi10.net1
                                                                 1.00 
      157 x_dut.x_pm_neuron_xi6.xi2.net1__2.
                                            pm_neuron_xi6.xi2.net1__2
                                                                 1.00 
      158 x_dut.x_pm_neuron_xi6.xi1.net1__2.
                                            pm_neuron_xi6.xi1.net1__2
                                                                 1.00 
      159 x_dut.x_pm_neuron_xi6.xi2.net1. pm_neuron_xi6.xi2.net1
                                                                 1.00 
      160 x_dut.x_pm_neuron_xi6.xi1.net1. pm_neuron_xi6.xi1.net1
                                                                 1.00 
      161 x_dut.x_pm_neuron_xi4.xi5.net22__2.
                                            pm_neuron_xi4.xi5.net22__2
                                                                 1.00 
      162 x_dut.x_pm_neuron_xi4.xi8.xi0.net35__2.
                                            pm_neuron_xi4.xi8.xi0.net35__2
                                                                 1.00 
      163 x_dut.x_pm_neuron_xi4.xi5.net22.
                                            pm_neuron_xi4.xi5.net22
                                                                 1.00 
      164 x_dut.x_pm_neuron_xi4.xi8.xi0.net35.
                                            pm_neuron_xi4.xi8.xi0.net35
                                                                 1.00 
      165 x_dut.x_pm_neuron_xi5.xi8.net22__2.
                                            pm_neuron_xi5.xi8.net22__2
                                                                 1.00 
      166 x_dut.x_pm_neuron_xi5.xi7.xi0.net35__2.
                                            pm_neuron_xi5.xi7.xi0.net35__2
                                                                 1.00 
      167 x_dut.x_pm_neuron_xi5.xi8.net22.
                                            pm_neuron_xi5.xi8.net22
                                                                 1.00 
      168 x_dut.x_pm_neuron_xi5.xi7.xi0.net35.
                                            pm_neuron_xi5.xi7.xi0.net35
                                                                 1.00 
 
  **info**: .option gmin=1e-12 is scaled to gmin=1e-15 for BSIM-CMG.
  **info**: .option gmindc=1e-18 is scaled to gmindc=1e-21 for BSIM-CMG.

 ******  
 **test

 ****** mos   model parameters tnom=  25.000 temp=  25.000 ******
 Model file: /cae/apps/data/asap7PDK-2022/asap7PDK_r1p7/models/hspice/7nm_TT_160803.pm
 Model line:           99
 Model Name: nmos_rvt 
 BSIM-MG BULK Model(Level72)
   VERSION =    107  
   L = 2.1e-08 
   D =  4e-08 
   TFIN = 6.5e-09 
   FPITCH = 2.7e-08 
   NF = 1 
   NFIN =      1 
   NGCON = 1 
   ASEO =      0 
   ADEO =      0 
   PSEO =      0 
   PDEO =      0 
   ASEJ =      0 
   ADEJ =      0 
   PSEJ =      0 
   PDEJ =      0 
   CGSP =      0 
   CGDP =      0 
   CDSP =      0 
   NRS =      0 
   NRD =      0 
   LRSD = 2.1e-08 
   XL =  1e-09 
   DTEMP =      0 
   DELVTRAND =      0 
   U0MULT =      1 
   IDS0MULT =      1 
   DEVTYPE = 1 
   BULKMOD = 1 
   COREMOD = 0 
   GEOMOD = 1 
   RDSMOD = 0 
   ASYMMOD = 0 
   IGCMOD = 1 
   IGBMOD = 0 
   GIDLMOD = 1 
   IIMOD = 0 
   NQSMOD = 0 
   SHMOD = 0 
   RGATEMOD = 0 
   RGEOMOD = 0 
   CGEOMOD = 0 
   CAPMOD = 0 
   LINT = -2e-09 
   LL =      0 
   LLN =      1 
   DLC =      0 
   DLCACC =      0 
   DLBIN =      0 
   LLC =      0 
   EOT =  1e-09 
   TOXP = 2.1e-09 
   EOTBOX = 1.4e-07 
   HFIN = 3.2e-08 
   FECH =      1 
   DELTAW =      0 
   FECHCV =      1 
   DELTAWCV =      0 
   NBODY =  1e+22 
   NSD =  2e+26 
   PHIG =  4.372 
   EPSROX =    3.9 
   EPSRSUB =   11.9 
   EASUB =   4.05 
   NI0SUB = 1.1e+16 
   BG0SUB =   1.17 
   NC0SUB = 2.86e+25 
   NGATE =      0 
   CIT =      0 
   CDSC =   0.01 
   CDSCD =   0.01 
   CDSCDR =   0.01 
   DVT0 =   0.05 
   DVT1 =   0.48 
   PHIN =   0.05 
   ETA0 =  0.062 
   ETA0R =  0.062 
   DSUB =   0.35 
   K1RSCE =      0 
   LPE0 =      0 
   DVTSHIFT =      0 
   PHIBE =    0.7 
   K0 =      0 
   K0SI =      1 
   K1 =      0 
   K1SAT =      0 
   QMFACTOR =    2.5 
   QMTCENIV =      0 
   QMTCENCV =      0 
   QMTCENCVA =      0 
   AQMTCEN =      0 
   BQMTCEN = 1.2e-08 
   ETAQM =   0.54 
   QM0 =  0.001 
   PQM =   0.66 
   QM0ACC =  0.001 
   PQMACC =   0.66 
   VSAT =  7e+04 
   AVSAT =      0 
   BVSAT =  1e-07 
   VSAT1 =  7e+04 
   VSAT1R =  7e+04 
   AVSAT1 =      0 
   BVSAT1 =  1e-07 
   DELTAVSAT =   0.28 
   PSAT =      2 
   APSAT =      0 
   BPSAT =      1 
   KSATIV =      2 
   VSATCV =  7e+04 
   AVSATCV =      0 
   BVSATCV =  1e-07 
   MEXP =      4 
   AMEXP =      0 
   BMEXP =      1 
   PTWG =     30 
   PTWGR =     30 
   APTWG =      0 
   BPTWG =  1e-07 
   AT =  0.001 
   TMEXP =      0 
   PTWGT =  0.004 
   U0 = 0.0252 
   ETAMOB =      2 
   UP =      0 
   LPA =      1 
   UA =   0.55 
   AUA =      0 
   BUA =  1e-07 
   UC =      0 
   EU =    1.2 
   AEU =      0 
   BEU =  1e-07 
   UD =      0 
   AUD =      0 
   BUD =  5e-08 
   UCS =      1 
   UTE =   -0.7 
   UTL =      0 
   EMOBT =      0 
   UA1 = 0.001032 
   UC1 = 5.6e-11 
   UD1 =      0 
   UCSTE = -0.004775 
   RDSWMIN =      0 
   RDSW =    200 
   ARDSW =      0 
   BRDSW =  1e-07 
   RSWMIN =      0 
   RSW =     50 
   ARSW =      0 
   BRSW =  1e-07 
   RDWMIN =      0 
   RDW =     50 
   ARDW =      0 
   BRDW =  1e-07 
   RSDR =      0 
   RSDRR =      0 
   RDDR =      0 
   RDDRR =      0 
   PRSDR =      1 
   PRDDR =      1 
   PRWGS =      0 
   PRWGD =      0 
   WR =      1 
   PRT =      0 
   TRSDR =      0 
   TRDDR =      0 
   PDIBL1 =      0 
   PDIBL1R =      0 
   PDIBL2 =  0.002 
   DROUT =      1 
   PVAG =      0 
   PCLM =   0.05 
   APCLM =      0 
   BPCLM =  1e-07 
   PCLMG =      0 
   PCLMCV =   0.05 
   A1 =      0 
   A2 =      0 
   RGEXT =      0 
   RGFIN =  0.001 
   RSHS =      0 
   RSHD =      0 
   HEPI =  1e-08 
   TSILI =  1e-08 
   RHOC =  1e-12 
   RHORSD =      1 
   CRATIO =    0.5 
   DELTAPRSD =      0 
   SDTERM = 0 
   LSP = 4.4e-09 
   EPSRSP =    3.9 
   TGATE =  3e-08 
   TMASK =  3e-08 
   ASILIEND =      0 
   ARSDEND =      0 
   PRSDEND =      0 
   NSDE =  2e+25 
   RGEOA =      1 
   RGEOB =      0 
   RGEOC =      0 
   RGEOD =      0 
   RGEOE =      0 
   CGEOA =      1 
   CGEOB =      0 
   CGEOC =      0 
   CGEOD =      0 
   CGEOE =      1 
   AIGBINV = 0.0111 
   BIGBINV = 0.000949 
   CIGBINV =  0.006 
   EIGBINV =    1.1 
   NIGBINV =      3 
   AIGBACC = 0.0136 
   BIGBACC = 0.00171 
   CIGBACC =  0.075 
   NIGBACC =      1 
   AIGC =  0.014 
   BIGC =  0.005 
   CIGC =   0.25 
   PIGCD =      1 
   DLCIGS =  1e-09 
   AIGS = 0.0115 
   BIGS = 0.00332 
   CIGS =   0.35 
   DLCIGD =  1e-09 
   AIGD = 0.0115 
   BIGD = 0.00332 
   CIGD =   0.35 
   TOXREF = 1.2e-09 
   NTOX =      1 
   POXEDGE =    1.1 
   AGISL =  1e-12 
   BGISL =  1e+07 
   CGISL =    0.5 
   EGISL =   0.35 
   PGISL =      1 
   AGIDL =  1e-12 
   BGIDL =  1e+07 
   CGIDL =    0.5 
   EGIDL =   0.35 
   PGIDL =      1 
   ALPHA0 =      0 
   ALPHA1 =      0 
   BETA0 =      0 
   BETAII0 =      0 
   BETAII1 =      0 
   BETAII2 =    0.1 
   ESATII =  1e+07 
   LII =  5e-10 
   SII0 =    0.5 
   SII1 =    0.1 
   SII2 =      0 
   SIID =      0 
   EOTACC =  1e-10 
   DELVFBACC =      0 
   CFS =      0 
   CFD =      0 
   COVS =      0 
   COVD =      0 
   CGSO = 1.6e-10 
   CGDO = 1.6e-10 
   CGSL =      0 
   CGDL =      0 
   CKAPPAS =    0.6 
   CKAPPAD =    0.6 
   CGBO =      0 
   CGBN =      0 
   CGBL =      0 
   CKAPPAB =    0.6 
   CSDESW =      0 
   CJS = 0.0005 
   CJD = 0.0005 
   CJSWS =  5e-10 
   CJSWD =  5e-10 
   CJSWGS =      0 
   CJSWGD =      0 
   PBS =      1 
   PBD =      1 
   PBSWS =      1 
   PBSWD =      1 
   PBSWGS =      1 
   PBSWGD =      1 
   MJS =    0.5 
   MJD =    0.5 
   MJSWS =   0.33 
   MJSWD =   0.33 
   MJSWGS =   0.33 
   MJSWGD =   0.33 
   SJS =      0 
   SJD =      0 
   SJSWS =      0 
   SJSWD =      0 
   SJSWGS =      0 
   SJSWGD =      0 
   MJS2 =  0.125 
   MJD2 =  0.125 
   MJSWS2 =  0.083 
   MJSWD2 =  0.083 
   MJSWGS2 =  0.083 
   MJSWGD2 =  0.083 
   JSS = 0.0001 
   JSD = 0.0001 
   JSWS =      0 
   JSWD =      0 
   JSWGS =      0 
   JSWGD =      0 
   NJS =      1 
   NJD =      1 
   IJTHSFWD =    0.1 
   IJTHDFWD =    0.1 
   IJTHSREV =    0.1 
   IJTHDREV =    0.1 
   BVS =     10 
   BVD =     10 
   XJBVS =      1 
   XJBVD =      1 
   JTSS =      0 
   JTSD =      0 
   JTSSWS =      0 
   JTSSWD =      0 
   JTSSWGS =      0 
   JTSSWGD =      0 
   JTWEFF =      0 
   NJTS =     20 
   NJTSD =     20 
   NJTSSW =     20 
   NJTSSWD =     20 
   NJTSSWG =     20 
   NJTSSWGD =     20 
   VTSS =     10 
   VTSD =     10 
   VTSSWS =     10 
   VTSSWD =     10 
   VTSSWGS =     10 
   VTSSWGD =     10 
   LINTIGEN =      0 
   NTGEN =      1 
   AIGEN =      0 
   BIGEN =      0 
   XRCRG1 =     12 
   XRCRG2 =      1 
   NSEG = 5 
   EF =      1 
   EM = 4.1e+07 
   NOIA = 6.25e+39 
   NOIB = 3.125e+24 
   NOIC = 8.75e+07 
   NTNOI =      1 
   TNOM =     25 
   TBGASUB = 0.000473 
   TBGBSUB =    636 
   KT1 =      0 
   KT1L =      0 
   TSS =      0 
   IIT =   -0.5 
   TII =      0 
   TGIDL = -0.007 
   IGT =    2.5 
   TCJ =      0 
   TCJSW =      0 
   TCJSWG =      0 
   TPB =      0 
   TPBSW =      0 
   TPBSWG =      0 
   XTIS =      3 
   XTID =      3 
   XTSS =   0.02 
   XTSD =   0.02 
   XTSSWS =   0.02 
   XTSSWD =   0.02 
   XTSSWGS =   0.02 
   XTSSWGD =   0.02 
   TNJTS =      0 
   TNJTSD =      0 
   TNJTSSW =      0 
   TNJTSSWD =      0 
   TNJTSSWG =      0 
   TNJTSSWGD =      0 
   RTH0 =  0.225 
   CTH0 = 1.243e-06 
   WTH0 = 2.6e-07 
   LNBODY =      0 
   NNBODY =      0 
   PNBODY =      0 
   LPHIG =      0 
   NPHIG =      0 
   PPHIG =      0 
   LNGATE =      0 
   NNGATE =      0 
   PNGATE =      0 
   LCIT =      0 
   NCIT =      0 
   PCIT =      0 
   LCDSC =      0 
   NCDSC =      0 
   PCDSC =      0 
   LCDSCD =  5e-05 
   NCDSCD =      0 
   PCDSCD =      0 
   LCDSCDR =  5e-05 
   NCDSCDR =      0 
   PCDSCDR =      0 
   LDVT0 =      0 
   NDVT0 =      0 
   PDVT0 =      0 
   LDVT1 =      0 
   NDVT1 =      0 
   PDVT1 =      0 
   LPHIN =      0 
   NPHIN =      0 
   PPHIN =      0 
   LETA0 =      0 
   NETA0 =      0 
   PETA0 =      0 
   LETA0R =      0 
   NETA0R =      0 
   PETA0R =      0 
   LDSUB =      0 
   NDSUB =      0 
   PDSUB =      0 
   LK1RSCE =      0 
   NK1RSCE =      0 
   PK1RSCE =      0 
   LLPE0 =      0 
   NLPE0 =      0 
   PLPE0 =      0 
   LDVTSHIFT =      0 
   NDVTSHIFT =      0 
   PDVTSHIFT =      0 
   LPHIBE =      0 
   NPHIBE =      0 
   PPHIBE =      0 
   LK0 =      0 
   NK0 =      0 
   PK0 =      0 
   LK0SI =      0 
   NK0SI =      0 
   PK0SI =      0 
   LK1 =      0 
   NK1 =      0 
   PK1 =      0 
   LK1SAT =      0 
   NK1SAT =      0 
   PK1SAT =      0 
   LDVTB =      0 
   NDVTB =      0 
   PDVTB =      0 
   LLPEB =      0 
   NLPEB =      0 
   PLPEB =      0 
   LQMFACTOR =      0 
   NQMFACTOR =      0 
   PQMFACTOR =      0 
   LQMTCENIV =      0 
   NQMTCENIV =      0 
   PQMTCENIV =      0 
   LQMTCENCV =      0 
   NQMTCENCV =      0 
   PQMTCENCV =      0 
   LQMTCENCVA =      0 
   NQMTCENCVA =      0 
   PQMTCENCVA =      0 
   LVSAT =      0 
   NVSAT =      0 
   PVSAT =      0 
   LVSAT1 =      0 
   NVSAT1 =      0 
   PVSAT1 =      0 
   LVSAT1R =      0 
   NVSAT1R =      0 
   PVSAT1R =      0 
   LPSAT =      0 
   NPSAT =      0 
   PPSAT =      0 
   LDELTAVSAT =      0 
   NDELTAVSAT =      0 
   PDELTAVSAT =      0 
   LKSATIV =      0 
   NKSATIV =      0 
   PKSATIV =      0 
   LVSATCV =      0 
   NVSATCV =      0 
   PVSATCV =      0 
   LMEXP =      0 
   NMEXP =      0 
   PMEXP =      0 
   LPTWG =      0 
   NPTWG =      0 
   PPTWG =      0 
   LPTWGR =      0 
   NPTWGR =      0 
   PPTWGR =      0 
   LU0 =      0 
   NU0 =      0 
   PU0 =      0 
   LETAMOB =      0 
   NETAMOB =      0 
   PETAMOB =      0 
   LUP =      0 
   NUP =      0 
   PUP =      0 
   LUA =      0 
   NUA =      0 
   PUA =      0 
   LUC =      0 
   NUC =      0 
   PUC =      0 
   LEU =      0 
   NEU =      0 
   PEU =      0 
   LUD =      0 
   NUD =      0 
   PUD =      0 
   LUCS =      0 
   NUCS =      0 
   PUCS =      0 
   LPCLM =      0 
   NPCLM =      0 
   PPCLM =      0 
   LPCLMG =      0 
   NPCLMG =      0 
   PPCLMG =      0 
   LPCLMCV =      0 
   NPCLMCV =      0 
   PPCLMCV =      0 
   LA1 =      0 
   NA1 =      0 
   PA1 =      0 
   LA2 =      0 
   NA2 =      0 
   PA2 =      0 
   LRDSW =    0.2 
   NRDSW =      0 
   PRDSW =      0 
   LRSW =      0 
   NRSW =      0 
   PRSW =      0 
   LRDW =      0 
   NRDW =      0 
   PRDW =      0 
   LPRWGS =      0 
   NPRWGS =      0 
   PPRWGS =      0 
   LPRWGD =      0 
   NPRWGD =      0 
   PPRWGD =      0 
   LWR =      0 
   NWR =      0 
   PWR =      0 
   LPDIBL1 =      0 
   NPDIBL1 =      0 
   PPDIBL1 =      0 
   LPDIBL1R =      0 
   NPDIBL1R =      0 
   PPDIBL1R =      0 
   LPDIBL2 =      0 
   NPDIBL2 =      0 
   PPDIBL2 =      0 
   LDROUT =      0 
   NDROUT =      0 
   PDROUT =      0 
   LPVAG =      0 
   NPVAG =      0 
   PPVAG =      0 
   LAIGBINV =      0 
   NAIGBINV =      0 
   PAIGBINV =      0 
   LBIGBINV =      0 
   NBIGBINV =      0 
   PBIGBINV =      0 
   LCIGBINV =      0 
   NCIGBINV =      0 
   PCIGBINV =      0 
   LEIGBINV =      0 
   NEIGBINV =      0 
   PEIGBINV =      0 
   LNIGBINV =      0 
   NNIGBINV =      0 
   PNIGBINV =      0 
   LAIGBACC =      0 
   NAIGBACC =      0 
   PAIGBACC =      0 
   LBIGBACC =      0 
   NBIGBACC =      0 
   PBIGBACC =      0 
   LCIGBACC =      0 
   NCIGBACC =      0 
   PCIGBACC =      0 
   LNIGBACC =      0 
   NNIGBACC =      0 
   PNIGBACC =      0 
   LAIGC =      0 
   NAIGC =      0 
   PAIGC =      0 
   LBIGC =      0 
   NBIGC =      0 
   PBIGC =      0 
   LCIGC =      0 
   NCIGC =      0 
   PCIGC =      0 
   LPIGCD =      0 
   NPIGCD =      0 
   PPIGCD =      0 
   LAIGS =      0 
   NAIGS =      0 
   PAIGS =      0 
   LBIGS =      0 
   NBIGS =      0 
   PBIGS =      0 
   LCIGS =      0 
   NCIGS =      0 
   PCIGS =      0 
   LAIGD =      0 
   NAIGD =      0 
   PAIGD =      0 
   LBIGD =      0 
   NBIGD =      0 
   PBIGD =      0 
   LCIGD =      0 
   NCIGD =      0 
   PCIGD =      0 
   LNTOX =      0 
   NNTOX =      0 
   PNTOX =      0 
   LPOXEDGE =      0 
   NPOXEDGE =      0 
   PPOXEDGE =      0 
   LAGISL =      0 
   NAGISL =      0 
   PAGISL =      0 
   LBGISL =      0 
   NBGISL =      0 
   PBGISL =      0 
   LCGISL =      0 
   NCGISL =      0 
   PCGISL =      0 
   LEGISL =      0 
   NEGISL =      0 
   PEGISL =      0 
   LPGISL =      0 
   NPGISL =      0 
   PPGISL =      0 
   LAGIDL =      0 
   NAGIDL =      0 
   PAGIDL =      0 
   LBGIDL =      0 
   NBGIDL =      0 
   PBGIDL =      0 
   LCGIDL =      0 
   NCGIDL =      0 
   PCGIDL =      0 
   LEGIDL =      0 
   NEGIDL =      0 
   PEGIDL =      0 
   LPGIDL =      0 
   NPGIDL =      0 
   PPGIDL =      0 
   LALPHA0 =      0 
   NALPHA0 =      0 
   PALPHA0 =      0 
   LALPHA1 =      0 
   NALPHA1 =      0 
   PALPHA1 =      0 
   LBETA0 =      0 
   NBETA0 =      0 
   PBETA0 =      0 
   LBETAII0 =      0 
   NBETAII0 =      0 
   PBETAII0 =      0 
   LBETAII1 =      0 
   NBETAII1 =      0 
   PBETAII1 =      0 
   LBETAII2 =      0 
   NBETAII2 =      0 
   PBETAII2 =      0 
   LESATII =      0 
   NESATII =      0 
   PESATII =      0 
   LLII =      0 
   NLII =      0 
   PLII =      0 
   LSII0 =      0 
   NSII0 =      0 
   PSII0 =      0 
   LSII1 =      0 
   NSII1 =      0 
   PSII1 =      0 
   LSII2 =      0 
   NSII2 =      0 
   PSII2 =      0 
   LSIID =      0 
   NSIID =      0 
   PSIID =      0 
   LCFS =      0 
   NCFS =      0 
   PCFS =      0 
   LCFD =      0 
   NCFD =      0 
   PCFD =      0 
   LCOVS =      0 
   NCOVS =      0 
   PCOVS =      0 
   LCOVD =      0 
   NCOVD =      0 
   PCOVD =      0 
   LCGSL =      0 
   NCGSL =      0 
   PCGSL =      0 
   LCGDL =      0 
   NCGDL =      0 
   PCGDL =      0 
   LCKAPPAS =      0 
   NCKAPPAS =      0 
   PCKAPPAS =      0 
   LCKAPPAD =      0 
   NCKAPPAD =      0 
   PCKAPPAD =      0 
   LCGBL =      0 
   NCGBL =      0 
   PCGBL =      0 
   LCKAPPAB =      0 
   NCKAPPAB =      0 
   PCKAPPAB =      0 
   LNTGEN =      0 
   NNTGEN =      0 
   PNTGEN =      0 
   LAIGEN =      0 
   NAIGEN =      0 
   PAIGEN =      0 
   LBIGEN =      0 
   NBIGEN =      0 
   PBIGEN =      0 
   LXRCRG1 =      0 
   NXRCRG1 =      0 
   PXRCRG1 =      0 
   LXRCRG2 =      0 
   NXRCRG2 =      0 
   PXRCRG2 =      0 
   LINTNOI =      0 
   LUTE =      0 
   NUTE =      0 
   PUTE =      0 
   LUTL =      0 
   NUTL =      0 
   PUTL =      0 
   LEMOBT =      0 
   NEMOBT =      0 
   PEMOBT =      0 
   LUA1 =      0 
   NUA1 =      0 
   PUA1 =      0 
   LUC1 =      0 
   NUC1 =      0 
   PUC1 =      0 
   LUD1 =      0 
   NUD1 =      0 
   PUD1 =      0 
   LUCSTE =      0 
   NUCSTE =      0 
   PUCSTE =      0 
   LPTWGT =      0 
   NPTWGT =      0 
   PPTWGT =      0 
   LAT =      0 
   NAT =      0 
   PAT =      0 
   LSTTHETASAT =      0 
   NSTTHETASAT =      0 
   PSTTHETASAT =      0 
   LPRT =      0 
   NPRT =      0 
   PPRT =      0 
   LKT1 =      0 
   NKT1 =      0 
   PKT1 =      0 
   LTSS =      0 
   NTSS =      0 
   PTSS =      0 
   LIIT =      0 
   NIIT =      0 
   PIIT =      0 
   LTII =      0 
   NTII =      0 
   PTII =      0 
   LTGIDL =      0 
   NTGIDL =      0 
   PTGIDL =      0 
   LIGT =      0 
   NIGT =      0 
   PIGT =      0 
   Imin =  1e-15 
   K01 =      0 
   K0SI1 =      0 
   K1SI =      1 
   K1SI1 =      0 
   K11 =      0 
   K1SAT1 =      0 
   DELTAVSATCV =   0.28 
   PSATCV =      2 
   APSATCV =      0 
   BPSATCV =      1 
   A11 =      0 
   A21 =      0 
   AIGBINV1 =      0 
   AIGBACC1 =      0 
   AIGC1 =      0 
   AIGS1 =      0 
   AIGD1 =      0 
   TOXG = 1.8e-09 
   ALPHA01 =      0 
   ALPHA11 =      0 
   ALPHAII0 =      0 
   ALPHAII01 =      0 
   ALPHAII1 =      0 
   ALPHAII11 =      0 
   LK01 =      0 
   NK01 =      0 
   PK01 =      0 
   LK0SI1 =      0 
   NK0SI1 =      0 
   PK0SI1 =      0 
   LK1SI =      0 
   NK1SI =      0 
   PK1SI =      0 
   LK1SI1 =      0 
   NK1SI1 =      0 
   PK1SI1 =      0 
   LK11 =      0 
   NK11 =      0 
   PK11 =      0 
   LK1SAT1 =      0 
   NK1SAT1 =      0 
   PK1SAT1 =      0 
   LPSATCV =      0 
   NPSATCV =      0 
   PPSATCV =      0 
   LDELTAVSATCV =      0 
   NDELTAVSATCV =      0 
   PDELTAVSATCV =      0 
   LA11 =      0 
   NA11 =      0 
   PA11 =      0 
   LA21 =      0 
   NA21 =      0 
   PA21 =      0 
   LAIGBINV1 =      0 
   NAIGBINV1 =      0 
   PAIGBINV1 =      0 
   LAIGBACC1 =      0 
   NAIGBACC1 =      0 
   PAIGBACC1 =      0 
   LAIGC1 =      0 
   NAIGC1 =      0 
   PAIGC1 =      0 
   LAIGS1 =      0 
   NAIGS1 =      0 
   PAIGS1 =      0 
   LAIGD1 =      0 
   NAIGD1 =      0 
   PAIGD1 =      0 
   LALPHAII0 =      0 
   NALPHAII0 =      0 
   PALPHAII0 =      0 
   LALPHAII1 =      0 
   NALPHAII1 =      0 
   PALPHAII1 =      0 
   CGEO1SW = 0 
   NBODYN1 =      0 
   NBODYN2 =  1e+05 
   PHIGL =      0 
   PHIGN1 =      0 
   PHIGN2 =  1e+05 
   CDSCN1 =      0 
   CDSCN2 =  1e+05 
   CDSCDN1 =      0 
   CDSCDN2 =  1e+05 
   CDSCDRN1 =      0 
   CDSCDRN2 =  1e+05 
   DVT1SS =   0.48 
   ETA0N1 =      0 
   ETA0N2 =  1e+05 
   TETA0 =      0 
   TETA0R =      0 
   DVTP0 =      0 
   DVTP1 =      0 
   VSATN1 =      0 
   VSATN2 =  1e+05 
   VSAT1N1 =      0 
   VSAT1N2 =  1e+05 
   VSAT1RN1 =      0 
   VSAT1RN2 =  1e+05 
   MEXPR =      4 
   AMEXPR =      0 
   BMEXPR =      1 
   TMEXPR =      0 
   U0N1 =      0 
   U0N2 =  1e+05 
   CHARGEWF =      0 
   LDVT1SS =      0 
   NDVT1SS =      0 
   PDVT1SS =      0 
   LMEXPR =      0 
   NMEXPR =      0 
   PMEXPR =      0 
 Model file: /cae/apps/data/asap7PDK-2022/asap7PDK_r1p7/models/hspice/7nm_TT_160803.pm
 Model line:          355
 Model Name: pmos_rvt 
 BSIM-MG BULK Model(Level72)
   VERSION =    107  
   L = 2.1e-08 
   D =  4e-08 
   TFIN = 6.5e-09 
   FPITCH = 2.7e-08 
   NF = 1 
   NFIN =      1 
   NGCON = 1 
   ASEO =      0 
   ADEO =      0 
   PSEO =      0 
   PDEO =      0 
   ASEJ =      0 
   ADEJ =      0 
   PSEJ =      0 
   PDEJ =      0 
   CGSP =      0 
   CGDP =      0 
   CDSP =      0 
   NRS =      0 
   NRD =      0 
   LRSD = 2.1e-08 
   XL =  1e-09 
   DTEMP =      0 
   DELVTRAND =      0 
   U0MULT =      1 
   IDS0MULT =      1 
   DEVTYPE = 0 
   BULKMOD = 1 
   COREMOD = 0 
   GEOMOD = 1 
   RDSMOD = 0 
   ASYMMOD = 0 
   IGCMOD = 1 
   IGBMOD = 0 
   GIDLMOD = 1 
   IIMOD = 0 
   NQSMOD = 0 
   SHMOD = 0 
   RGATEMOD = 0 
   RGEOMOD = 0 
   CGEOMOD = 0 
   CAPMOD = 0 
   LINT = -2.5e-09 
   LL =      0 
   LLN =      1 
   DLC =      0 
   DLCACC =      0 
   DLBIN =      0 
   LLC =      0 
   EOT =  1e-09 
   TOXP = 2.1e-09 
   EOTBOX = 1.4e-07 
   HFIN = 3.2e-08 
   FECH =      1 
   DELTAW =      0 
   FECHCV =      1 
   DELTAWCV =      0 
   NBODY =  1e+22 
   NSD =  2e+26 
   PHIG =  4.811 
   EPSROX =    3.9 
   EPSRSUB =   11.9 
   EASUB =   4.05 
   NI0SUB = 1.1e+16 
   BG0SUB =   1.17 
   NC0SUB = 2.86e+25 
   NGATE =      0 
   CIT =      0 
   CDSC = 0.003469 
   CDSCD = 0.001486 
   CDSCDR = 0.001486 
   DVT0 =   0.05 
   DVT1 =    0.4 
   PHIN =   0.05 
   ETA0 =   0.09 
   ETA0R =   0.09 
   DSUB =   0.24 
   K1RSCE =      0 
   LPE0 =      0 
   DVTSHIFT =      0 
   PHIBE =    0.7 
   K0 =      0 
   K0SI =      1 
   K1 =      0 
   K1SAT =      0 
   QMFACTOR =      0 
   QMTCENIV =      0 
   QMTCENCV =      0 
   QMTCENCVA =      0 
   AQMTCEN =      0 
   BQMTCEN = 1.2e-08 
   ETAQM =   0.54 
   QM0 = 2.183e-12 
   PQM =   0.66 
   QM0ACC =  0.001 
   PQMACC =   0.66 
   VSAT =  6e+04 
   AVSAT =      0 
   BVSAT =  1e-07 
   VSAT1 =  6e+04 
   VSAT1R =  6e+04 
   AVSAT1 =      0 
   BVSAT1 =  1e-07 
   DELTAVSAT =   0.22 
   PSAT =      2 
   APSAT =      0 
   BPSAT =      1 
   KSATIV =  1.592 
   VSATCV =  6e+04 
   AVSATCV =      0 
   BVSATCV =  1e-07 
   MEXP =  2.491 
   AMEXP =      0 
   BMEXP =      1 
   PTWG =     25 
   PTWGR =     25 
   APTWG =      0 
   BPTWG =  1e-07 
   AT =  0.001 
   TMEXP =      0 
   PTWGT =  0.004 
   U0 = 0.0209 
   ETAMOB =      4 
   UP =      0 
   LPA =      1 
   UA =  1.133 
   AUA =      0 
   BUA =  1e-07 
   UC =      0 
   EU =   0.05 
   AEU =      0 
   BEU =  1e-07 
   UD = 0.0105 
   AUD =      0 
   BUD =  5e-08 
   UCS = 0.2672 
   UTE =   -1.2 
   UTL =      0 
   EMOBT =      0 
   UA1 = 0.001032 
   UC1 = 5.6e-11 
   UD1 =      0 
   UCSTE = -0.004775 
   RDSWMIN =      0 
   RDSW =    200 
   ARDSW =      0 
   BRDSW =  1e-07 
   RSWMIN =      0 
   RSW =     50 
   ARSW =      0 
   BRSW =  1e-07 
   RDWMIN =      0 
   RDW =     50 
   ARDW =      0 
   BRDW =  1e-07 
   RSDR =      0 
   RSDRR =      0 
   RDDR =      0 
   RDDRR =      0 
   PRSDR =      1 
   PRDDR =      1 
   PRWGS =      0 
   PRWGD =      0 
   WR =      1 
   PRT =      0 
   TRSDR =      0 
   TRDDR =      0 
   PDIBL1 =    800 
   PDIBL1R =    800 
   PDIBL2 = 0.005704 
   DROUT =   4.97 
   PVAG =    200 
   PCLM =   0.01 
   APCLM =      0 
   BPCLM =  1e-07 
   PCLMG =      1 
   PCLMCV =   0.01 
   A1 =      0 
   A2 =      0 
   RGEXT =      0 
   RGFIN =  0.001 
   RSHS =      0 
   RSHD =      0 
   HEPI =  1e-08 
   TSILI =  1e-08 
   RHOC =  1e-12 
   RHORSD =      1 
   CRATIO =    0.5 
   DELTAPRSD =      0 
   SDTERM = 0 
   LSP = 4.4e-09 
   EPSRSP =    3.9 
   TGATE =  3e-08 
   TMASK =  3e-08 
   ASILIEND =      0 
   ARSDEND =      0 
   PRSDEND =      0 
   NSDE =  2e+25 
   RGEOA =      1 
   RGEOB =      0 
   RGEOC =      0 
   RGEOD =      0 
   RGEOE =      0 
   CGEOA =      1 
   CGEOB =      0 
   CGEOC =      0 
   CGEOD =      0 
   CGEOE =      1 
   AIGBINV = 0.0111 
   BIGBINV = 0.000949 
   CIGBINV =  0.006 
   EIGBINV =    1.1 
   NIGBINV =      3 
   AIGBACC = 0.0136 
   BIGBACC = 0.00171 
   CIGBACC =  0.075 
   NIGBACC =      1 
   AIGC =  0.007 
   BIGC = 0.0015 
   CIGC =      1 
   PIGCD =      1 
   DLCIGS =  5e-09 
   AIGS =  0.006 
   BIGS = 0.001944 
   CIGS =      1 
   DLCIGD =  5e-09 
   AIGD =  0.006 
   BIGD = 0.001944 
   CIGD =      1 
   TOXREF = 1.2e-09 
   NTOX =      1 
   POXEDGE =  1.152 
   AGISL =  2e-12 
   BGISL = 1.5e+08 
   CGISL =    0.5 
   EGISL =  1.142 
   PGISL =      1 
   AGIDL =  2e-12 
   BGIDL = 1.5e+08 
   CGIDL =    0.5 
   EGIDL =  1.142 
   PGIDL =      1 
   ALPHA0 =      0 
   ALPHA1 =      0 
   BETA0 =      0 
   BETAII0 =      0 
   BETAII1 =      0 
   BETAII2 =    0.1 
   ESATII =  1e+07 
   LII =  5e-10 
   SII0 =    0.5 
   SII1 =    0.1 
   SII2 =      0 
   SIID =      0 
   EOTACC =  3e-10 
   DELVFBACC =      0 
   CFS =      0 
   CFD =      0 
   COVS =      0 
   COVD =      0 
   CGSO = 1.6e-10 
   CGDO = 1.6e-10 
   CGSL =      0 
   CGDL =      0 
   CKAPPAS =    0.6 
   CKAPPAD =    0.6 
   CGBO =      0 
   CGBN =      0 
   CGBL =      0 
   CKAPPAB =    0.6 
   CSDESW =      0 
   CJS = 0.0005 
   CJD = 0.0005 
   CJSWS =  5e-10 
   CJSWD =  5e-10 
   CJSWGS =      0 
   CJSWGD =      0 
   PBS =      1 
   PBD =      1 
   PBSWS =      1 
   PBSWD =      1 
   PBSWGS =      1 
   PBSWGD =      1 
   MJS =    0.5 
   MJD =    0.5 
   MJSWS =   0.33 
   MJSWD =   0.33 
   MJSWGS =   0.33 
   MJSWGD =   0.33 
   SJS =      0 
   SJD =      0 
   SJSWS =      0 
   SJSWD =      0 
   SJSWGS =      0 
   SJSWGD =      0 
   MJS2 =  0.125 
   MJD2 =  0.125 
   MJSWS2 =  0.083 
   MJSWD2 =  0.083 
   MJSWGS2 =  0.083 
   MJSWGD2 =  0.083 
   JSS = 0.0001 
   JSD = 0.0001 
   JSWS =      0 
   JSWD =      0 
   JSWGS =      0 
   JSWGD =      0 
   NJS =      1 
   NJD =      1 
   IJTHSFWD =    0.1 
   IJTHDFWD =    0.1 
   IJTHSREV =    0.1 
   IJTHDREV =    0.1 
   BVS =     10 
   BVD =     10 
   XJBVS =      1 
   XJBVD =      1 
   JTSS =      0 
   JTSD =      0 
   JTSSWS =      0 
   JTSSWD =      0 
   JTSSWGS =      0 
   JTSSWGD =      0 
   JTWEFF =      0 
   NJTS =     20 
   NJTSD =     20 
   NJTSSW =     20 
   NJTSSWD =     20 
   NJTSSWG =     20 
   NJTSSWGD =     20 
   VTSS =     10 
   VTSD =     10 
   VTSSWS =     10 
   VTSSWD =     10 
   VTSSWGS =     10 
   VTSSWGD =     10 
   LINTIGEN =      0 
   NTGEN =      1 
   AIGEN =      0 
   BIGEN =      0 
   XRCRG1 =     12 
   XRCRG2 =      1 
   NSEG = 5 
   EF =      1 
   EM = 4.1e+07 
   NOIA = 6.25e+39 
   NOIB = 3.125e+24 
   NOIC = 8.75e+07 
   NTNOI =      1 
   TNOM =     25 
   TBGASUB = 0.000473 
   TBGBSUB =    636 
   KT1 =      0 
   KT1L =      0 
   TSS =      0 
   IIT =   -0.5 
   TII =      0 
   TGIDL = -0.007 
   IGT =    2.5 
   TCJ =      0 
   TCJSW =      0 
   TCJSWG =      0 
   TPB =      0 
   TPBSW =      0 
   TPBSWG =      0 
   XTIS =      3 
   XTID =      3 
   XTSS =   0.02 
   XTSD =   0.02 
   XTSSWS =   0.02 
   XTSSWD =   0.02 
   XTSSWGS =   0.02 
   XTSSWGD =   0.02 
   TNJTS =      0 
   TNJTSD =      0 
   TNJTSSW =      0 
   TNJTSSWD =      0 
   TNJTSSWG =      0 
   TNJTSSWGD =      0 
   RTH0 =   0.15 
   CTH0 = 1.243e-06 
   WTH0 = 2.6e-07 
   LNBODY =      0 
   NNBODY =      0 
   PNBODY =      0 
   LPHIG =      0 
   NPHIG =      0 
   PPHIG =      0 
   LNGATE =      0 
   NNGATE =      0 
   PNGATE =      0 
   LCIT =      0 
   NCIT =      0 
   PCIT =      0 
   LCDSC =      0 
   NCDSC =      0 
   PCDSC =      0 
   LCDSCD =      0 
   NCDSCD =      0 
   PCDSCD =      0 
   LCDSCDR =      0 
   NCDSCDR =      0 
   PCDSCDR =      0 
   LDVT0 =      0 
   NDVT0 =      0 
   PDVT0 =      0 
   LDVT1 =      0 
   NDVT1 =      0 
   PDVT1 =      0 
   LPHIN =      0 
   NPHIN =      0 
   PPHIN =      0 
   LETA0 =      0 
   NETA0 =      0 
   PETA0 =      0 
   LETA0R =      0 
   NETA0R =      0 
   PETA0R =      0 
   LDSUB =      0 
   NDSUB =      0 
   PDSUB =      0 
   LK1RSCE =      0 
   NK1RSCE =      0 
   PK1RSCE =      0 
   LLPE0 =      0 
   NLPE0 =      0 
   PLPE0 =      0 
   LDVTSHIFT =      0 
   NDVTSHIFT =      0 
   PDVTSHIFT =      0 
   LPHIBE =      0 
   NPHIBE =      0 
   PPHIBE =      0 
   LK0 =      0 
   NK0 =      0 
   PK0 =      0 
   LK0SI =      0 
   NK0SI =      0 
   PK0SI =      0 
   LK1 =      0 
   NK1 =      0 
   PK1 =      0 
   LK1SAT =      0 
   NK1SAT =      0 
   PK1SAT =      0 
   LDVTB =      0 
   NDVTB =      0 
   PDVTB =      0 
   LLPEB =      0 
   NLPEB =      0 
   PLPEB =      0 
   LQMFACTOR =      0 
   NQMFACTOR =      0 
   PQMFACTOR =      0 
   LQMTCENIV =      0 
   NQMTCENIV =      0 
   PQMTCENIV =      0 
   LQMTCENCV =      0 
   NQMTCENCV =      0 
   PQMTCENCV =      0 
   LQMTCENCVA =      0 
   NQMTCENCVA =      0 
   PQMTCENCVA =      0 
   LVSAT =   1441 
   NVSAT =      0 
   PVSAT =      0 
   LVSAT1 =   1441 
   NVSAT1 =      0 
   PVSAT1 =      0 
   LVSAT1R =   1441 
   NVSAT1R =      0 
   PVSAT1R =      0 
   LPSAT =      0 
   NPSAT =      0 
   PPSAT =      0 
   LDELTAVSAT =      0 
   NDELTAVSAT =      0 
   PDELTAVSAT =      0 
   LKSATIV =      0 
   NKSATIV =      0 
   PKSATIV =      0 
   LVSATCV =      0 
   NVSATCV =      0 
   PVSATCV =      0 
   LMEXP =      0 
   NMEXP =      0 
   PMEXP =      0 
   LPTWG =      0 
   NPTWG =      0 
   PPTWG =      0 
   LPTWGR =      0 
   NPTWGR =      0 
   PPTWGR =      0 
   LU0 =      0 
   NU0 =      0 
   PU0 =      0 
   LETAMOB =      0 
   NETAMOB =      0 
   PETAMOB =      0 
   LUP =      0 
   NUP =      0 
   PUP =      0 
   LUA =      0 
   NUA =      0 
   PUA =      0 
   LUC =      0 
   NUC =      0 
   PUC =      0 
   LEU =      0 
   NEU =      0 
   PEU =      0 
   LUD =      0 
   NUD =      0 
   PUD =      0 
   LUCS =      0 
   NUCS =      0 
   PUCS =      0 
   LPCLM =      0 
   NPCLM =      0 
   PPCLM =      0 
   LPCLMG =      0 
   NPCLMG =      0 
   PPCLMG =      0 
   LPCLMCV =      0 
   NPCLMCV =      0 
   PPCLMCV =      0 
   LA1 =      0 
   NA1 =      0 
   PA1 =      0 
   LA2 =      0 
   NA2 =      0 
   PA2 =      0 
   LRDSW =    1.3 
   NRDSW =      0 
   PRDSW =      0 
   LRSW =      0 
   NRSW =      0 
   PRSW =      0 
   LRDW =      0 
   NRDW =      0 
   PRDW =      0 
   LPRWGS =      0 
   NPRWGS =      0 
   PPRWGS =      0 
   LPRWGD =      0 
   NPRWGD =      0 
   PPRWGD =      0 
   LWR =      0 
   NWR =      0 
   PWR =      0 
   LPDIBL1 =      0 
   NPDIBL1 =      0 
   PPDIBL1 =      0 
   LPDIBL1R =      0 
   NPDIBL1R =      0 
   PPDIBL1R =      0 
   LPDIBL2 =      0 
   NPDIBL2 =      0 
   PPDIBL2 =      0 
   LDROUT =      0 
   NDROUT =      0 
   PDROUT =      0 
   LPVAG =      0 
   NPVAG =      0 
   PPVAG =      0 
   LAIGBINV =      0 
   NAIGBINV =      0 
   PAIGBINV =      0 
   LBIGBINV =      0 
   NBIGBINV =      0 
   PBIGBINV =      0 
   LCIGBINV =      0 
   NCIGBINV =      0 
   PCIGBINV =      0 
   LEIGBINV =      0 
   NEIGBINV =      0 
   PEIGBINV =      0 
   LNIGBINV =      0 
   NNIGBINV =      0 
   PNIGBINV =      0 
   LAIGBACC =      0 
   NAIGBACC =      0 
   PAIGBACC =      0 
   LBIGBACC =      0 
   NBIGBACC =      0 
   PBIGBACC =      0 
   LCIGBACC =      0 
   NCIGBACC =      0 
   PCIGBACC =      0 
   LNIGBACC =      0 
   NNIGBACC =      0 
   PNIGBACC =      0 
   LAIGC =      0 
   NAIGC =      0 
   PAIGC =      0 
   LBIGC =      0 
   NBIGC =      0 
   PBIGC =      0 
   LCIGC =      0 
   NCIGC =      0 
   PCIGC =      0 
   LPIGCD =      0 
   NPIGCD =      0 
   PPIGCD =      0 
   LAIGS =      0 
   NAIGS =      0 
   PAIGS =      0 
   LBIGS =      0 
   NBIGS =      0 
   PBIGS =      0 
   LCIGS =      0 
   NCIGS =      0 
   PCIGS =      0 
   LAIGD =      0 
   NAIGD =      0 
   PAIGD =      0 
   LBIGD =      0 
   NBIGD =      0 
   PBIGD =      0 
   LCIGD =      0 
   NCIGD =      0 
   PCIGD =      0 
   LNTOX =      0 
   NNTOX =      0 
   PNTOX =      0 
   LPOXEDGE =      0 
   NPOXEDGE =      0 
   PPOXEDGE =      0 
   LAGISL =      0 
   NAGISL =      0 
   PAGISL =      0 
   LBGISL =      0 
   NBGISL =      0 
   PBGISL =      0 
   LCGISL =      0 
   NCGISL =      0 
   PCGISL =      0 
   LEGISL =      0 
   NEGISL =      0 
   PEGISL =      0 
   LPGISL =      0 
   NPGISL =      0 
   PPGISL =      0 
   LAGIDL =      0 
   NAGIDL =      0 
   PAGIDL =      0 
   LBGIDL =      0 
   NBGIDL =      0 
   PBGIDL =      0 
   LCGIDL =      0 
   NCGIDL =      0 
   PCGIDL =      0 
   LEGIDL =      0 
   NEGIDL =      0 
   PEGIDL =      0 
   LPGIDL =      0 
   NPGIDL =      0 
   PPGIDL =      0 
   LALPHA0 =      0 
   NALPHA0 =      0 
   PALPHA0 =      0 
   LALPHA1 =      0 
   NALPHA1 =      0 
   PALPHA1 =      0 
   LBETA0 =      0 
   NBETA0 =      0 
   PBETA0 =      0 
   LBETAII0 =      0 
   NBETAII0 =      0 
   PBETAII0 =      0 
   LBETAII1 =      0 
   NBETAII1 =      0 
   PBETAII1 =      0 
   LBETAII2 =      0 
   NBETAII2 =      0 
   PBETAII2 =      0 
   LESATII =      0 
   NESATII =      0 
   PESATII =      0 
   LLII =      0 
   NLII =      0 
   PLII =      0 
   LSII0 =      0 
   NSII0 =      0 
   PSII0 =      0 
   LSII1 =      0 
   NSII1 =      0 
   PSII1 =      0 
   LSII2 =      0 
   NSII2 =      0 
   PSII2 =      0 
   LSIID =      0 
   NSIID =      0 
   PSIID =      0 
   LCFS =      0 
   NCFS =      0 
   PCFS =      0 
   LCFD =      0 
   NCFD =      0 
   PCFD =      0 
   LCOVS =      0 
   NCOVS =      0 
   PCOVS =      0 
   LCOVD =      0 
   NCOVD =      0 
   PCOVD =      0 
   LCGSL =      0 
   NCGSL =      0 
   PCGSL =      0 
   LCGDL =      0 
   NCGDL =      0 
   PCGDL =      0 
   LCKAPPAS =      0 
   NCKAPPAS =      0 
   PCKAPPAS =      0 
   LCKAPPAD =      0 
   NCKAPPAD =      0 
   PCKAPPAD =      0 
   LCGBL =      0 
   NCGBL =      0 
   PCGBL =      0 
   LCKAPPAB =      0 
   NCKAPPAB =      0 
   PCKAPPAB =      0 
   LNTGEN =      0 
   NNTGEN =      0 
   PNTGEN =      0 
   LAIGEN =      0 
   NAIGEN =      0 
   PAIGEN =      0 
   LBIGEN =      0 
   NBIGEN =      0 
   PBIGEN =      0 
   LXRCRG1 =      0 
   NXRCRG1 =      0 
   PXRCRG1 =      0 
   LXRCRG2 =      0 
   NXRCRG2 =      0 
   PXRCRG2 =      0 
   LINTNOI =      0 
   LUTE =      0 
   NUTE =      0 
   PUTE =      0 
   LUTL =      0 
   NUTL =      0 
   PUTL =      0 
   LEMOBT =      0 
   NEMOBT =      0 
   PEMOBT =      0 
   LUA1 =      0 
   NUA1 =      0 
   PUA1 =      0 
   LUC1 =      0 
   NUC1 =      0 
   PUC1 =      0 
   LUD1 =      0 
   NUD1 =      0 
   PUD1 =      0 
   LUCSTE =      0 
   NUCSTE =      0 
   PUCSTE =      0 
   LPTWGT =      0 
   NPTWGT =      0 
   PPTWGT =      0 
   LAT =      0 
   NAT =      0 
   PAT =      0 
   LSTTHETASAT =      0 
   NSTTHETASAT =      0 
   PSTTHETASAT =      0 
   LPRT =      0 
   NPRT =      0 
   PPRT =      0 
   LKT1 =      0 
   NKT1 =      0 
   PKT1 =      0 
   LTSS =      0 
   NTSS =      0 
   PTSS =      0 
   LIIT =      0 
   NIIT =      0 
   PIIT =      0 
   LTII =      0 
   NTII =      0 
   PTII =      0 
   LTGIDL =      0 
   NTGIDL =      0 
   PTGIDL =      0 
   LIGT =      0 
   NIGT =      0 
   PIGT =      0 
   Imin =  1e-15 
   K01 =      0 
   K0SI1 =      0 
   K1SI =      1 
   K1SI1 =      0 
   K11 =      0 
   K1SAT1 =      0 
   DELTAVSATCV =   0.22 
   PSATCV =      2 
   APSATCV =      0 
   BPSATCV =      1 
   A11 =      0 
   A21 =      0 
   AIGBINV1 =      0 
   AIGBACC1 =      0 
   AIGC1 =      0 
   AIGS1 =      0 
   AIGD1 =      0 
   TOXG = 1.9e-09 
   ALPHA01 =      0 
   ALPHA11 =      0 
   ALPHAII0 =      0 
   ALPHAII01 =      0 
   ALPHAII1 =      0 
   ALPHAII11 =      0 
   LK01 =      0 
   NK01 =      0 
   PK01 =      0 
   LK0SI1 =      0 
   NK0SI1 =      0 
   PK0SI1 =      0 
   LK1SI =      0 
   NK1SI =      0 
   PK1SI =      0 
   LK1SI1 =      0 
   NK1SI1 =      0 
   PK1SI1 =      0 
   LK11 =      0 
   NK11 =      0 
   PK11 =      0 
   LK1SAT1 =      0 
   NK1SAT1 =      0 
   PK1SAT1 =      0 
   LPSATCV =      0 
   NPSATCV =      0 
   PPSATCV =      0 
   LDELTAVSATCV =      0 
   NDELTAVSATCV =      0 
   PDELTAVSATCV =      0 
   LA11 =      0 
   NA11 =      0 
   PA11 =      0 
   LA21 =      0 
   NA21 =      0 
   PA21 =      0 
   LAIGBINV1 =      0 
   NAIGBINV1 =      0 
   PAIGBINV1 =      0 
   LAIGBACC1 =      0 
   NAIGBACC1 =      0 
   PAIGBACC1 =      0 
   LAIGC1 =      0 
   NAIGC1 =      0 
   PAIGC1 =      0 
   LAIGS1 =      0 
   NAIGS1 =      0 
   PAIGS1 =      0 
   LAIGD1 =      0 
   NAIGD1 =      0 
   PAIGD1 =      0 
   LALPHAII0 =      0 
   NALPHAII0 =      0 
   PALPHAII0 =      0 
   LALPHAII1 =      0 
   NALPHAII1 =      0 
   PALPHAII1 =      0 
   CGEO1SW = 0 
   NBODYN1 =      0 
   NBODYN2 =  1e+05 
   PHIGL =      0 
   PHIGN1 =      0 
   PHIGN2 =  1e+05 
   CDSCN1 =      0 
   CDSCN2 =  1e+05 
   CDSCDN1 =      0 
   CDSCDN2 =  1e+05 
   CDSCDRN1 =      0 
   CDSCDRN2 =  1e+05 
   DVT1SS =    0.4 
   ETA0N1 =      0 
   ETA0N2 =  1e+05 
   TETA0 =      0 
   TETA0R =      0 
   DVTP0 =      0 
   DVTP1 =      0 
   VSATN1 =      0 
   VSATN2 =  1e+05 
   VSAT1N1 =      0 
   VSAT1N2 =  1e+05 
   VSAT1RN1 =      0 
   VSAT1RN2 =  1e+05 
   MEXPR =  2.491 
   AMEXPR =      0 
   BMEXPR =      1 
   TMEXPR =      0 
   U0N1 =      0 
   U0N2 =  1e+05 
   CHARGEWF =      0 
   LDVT1SS =      0 
   NDVT1SS =      0 
   PDVT1SS =      0 
   LMEXPR =      0 
   NMEXPR =      0 
   PMEXPR =      0 
  **info** (test_neuron.sp:29) DC voltage reset to initial transient source value in source 0:v10. new dc=0.0000D+00
  **warning** (neuron.pex.netlist.pex:571) Both nodes of element x_dut.x_pm_neuron_vss.r2085 are connected together; Line ignored.
             
 Summary of Linear Res Distribution Info
 ---------------------------------------
 |Range          |Total     |Percent(%)|
 |---------------+----------+----------|
 |1e-03  ~  1e-02|5         |0.0762    |
 |1e-02  ~  1e-01|6         |0.0915    |
 |1e-01  ~  1e+00|1264      |19.2742   |
 |1e+00  ~  1e+03|5281      |80.5276   |
 |1e+03  ~  1e+05|2         |0.0305    |
 ---------------------------------------
              
             
 Summary of Linear Cap Distribution Info
 ---------------------------------------
 |Range          |Total     |Percent(%)|
 |---------------+----------+----------|
 |1e-21  ~  1e-20|1         |0.0121    |
 |1e-20  ~  1e-19|17        |0.2063    |
 |1e-19  ~  1e-18|3574      |43.3791   |
 |1e-18  ~  1e-17|3540      |42.9664   |
 |1e-17  ~  1e-16|1095      |13.2904   |
 |1e-16  ~  1e-15|12        |0.1456    |
 ---------------------------------------
              
             
 Summary of Detailed RC Type Statistics
 -------------------------
 |Element Type|Number    |
 |------------+----------|
 |Constant Res|6558      |
 |            |          |
 |Constant Cap|8239      |
 -------------------------
              
  
             
 Warning:'Dangling resistors' occurs 1 times.
 Summary of dangling resistors :
 ----------------------------------------------------------
 |Location                   |Resistor                    |
 |---------------------------+----------------------------|
 |neuron.pex.netlist.pex:5980|x_dut.x_pm_neuron_w2<1>.r346|
 ----------------------------------------------------------
              
  
             
 Warning:'No DC path nodes' occurs 148 times
 No DC path from the following nodes,connected with gdcpath:
 -----------------------------------
 |Node                  |Subckt    |
 |----------------------+----------|
 |out_z<1>              |0         |
 |x_dut.n_w2<1>_c_7883_n|neuron    |
 |x_dut.n_w2<1>_c_7885_n|neuron    |
 |x_dut.n_w2<1>_c_7888_n|neuron    |
 |x_dut.n_w2<1>_c_7889_n|neuron    |
 |x_dut.n_w2<1>_c_7890_n|neuron    |
 |x_dut.n_w2<1>_c_7891_n|neuron    |
 |x_dut.n_w2<1>_c_7906_n|neuron    |
 |x_dut.n_w2<1>_c_7907_n|neuron    |
 |x_dut.n_w2<1>_c_7909_n|neuron    |
 -----------------------------------
              
      
 *****************************************************************
 ******  option summary
 ******
 runlvl  = 3         bypass  = 2.00000000  
  Opening plot unit= 15
 file=test_neuron.pa0

  dc   first L1 norm       =  3.311e-15
  dc   first RF max norm   =  1.776e-05
  dc   max L1 norm         =  3.311e-15
  dc   max RF max norm     =  1.776e-05
  Number of refinement used in TRAN= 0
 

  ******  BTF Information  ******
  Total number of diagonal blocks                    =        3
  Number of non-trivil diagonal block                =        2
  N of largest non-trivil diagonal block             =     6393
  Solver of largest non-trivil diagonal block        = HSP_RIGHT
  Threads count of largest non-trivil diagonal block =        1
  Threads count for DC using single thread
  The block using different solver between DC and TRAN
  Solver for DC is                                 = HSP_RIGHT
  Number of fill-ins for this solver               = 27148
  Solver for TRAN is                               = HSP_RIGHT_MT
  Number of fill-ins for this solver               = 27148
  Threads count of tran solver                     = 4
  Test info of hss = wall_time 2.36082e-03, cpu_time 1.00000e-02, ticks 6.337484e+06, NFLOPs= 350499
  Test info of hspright = wall_time 1.66893e-04, cpu_time 0.00000e+00, ticks 4.427200e+05, NFLOPs= 350043
  Test info of hspmt = wall_time 3.40939e-04, cpu_time 0.00000e+00, ticks 9.115150e+05, NFLOPs= 156040
 ******  
 **test

 ****** operating point information tnom=  25.000 temp=  25.000 ******
 ****** operating point status is all       simulation time is   0.0000000e+00
      node    =voltage            node    =voltage

 +  0:out_z<0>= 4.3808799e-11   0:out_z<1>=-5.2340445e-13
 +  0:out_z<2>= 4.6661330e-06   0:vdd!    = 9.0000000e-01
 +  0:vss!    = 0.0000000e+00   0:w0<0>   = 0.0000000e+00
 +  0:w0<1>   = 0.0000000e+00   0:w1<0>   = 0.0000000e+00
 +  0:w1<1>   = 0.0000000e+00   0:w2<0>   = 0.0000000e+00
 +  0:w2<1>   = 0.0000000e+00   0:w2<2>   = 0.0000000e+00
 +  0:x0<0>   = 0.0000000e+00   0:x0<1>   = 0.0000000e+00
 +  0:x1<0>   = 0.0000000e+00   0:x1<1>   = 0.0000000e+00
 +  1:n_net2<1=-3.2214332e-12   1:n_net2<1=-3.2214332e-12
 +  1:n_net2<1=-3.2214332e-12   1:n_net2<1=-3.2214332e-12
 +  1:n_net2<1=-3.2214332e-12   1:n_net2<1=-3.2214332e-12
 +  1:n_net2<1=-3.2214333e-12   1:n_net2<1=-3.2214330e-12
 +  1:n_net2<1=-3.2214332e-12   1:n_net2<1=-3.2214332e-12
 +  1:n_net2<1=-3.2214332e-12   1:n_net2<1=-3.2214332e-12
 +  1:n_net2<1=-3.2214332e-12   1:n_net2<1=-3.2214332e-12
 +  1:n_net2<1=-3.2214332e-12   1:n_net2<1=-3.2214332e-12
 +  1:n_net2<1=-3.2214332e-12   1:n_net2<1=-3.2214332e-12
 +  1:n_net2<1=-3.2214332e-12   1:n_net2<1=-3.2214332e-12
 +  1:n_net2<1=-3.2214332e-12   1:n_net2<1=-3.2214332e-12
 +  1:n_net2<1=-3.2214332e-12   1:n_net2<1=-3.2214332e-12
 +  1:n_net2<1=-3.2214333e-12   1:n_net2<1=-3.2214332e-12
 +  1:n_net2<1=-3.2214332e-12   1:n_net2<1=-3.2214332e-12
 +  1:n_net2<1=-3.2214332e-12   1:n_net2<1=-3.2214332e-12
 +  1:n_net2<1=-3.2214332e-12   1:n_net2<0= 1.1988146e-11
 +  1:n_net2<0= 1.1988146e-11   1:n_net2<0= 1.1988145e-11
 +  1:n_net2<0= 1.1988146e-11   1:n_net2<0= 1.1988145e-11
 +  1:n_net2<0= 1.1988145e-11   1:n_net2<0= 1.1988145e-11
 +  1:n_net2<0= 1.1988145e-11   1:n_net2<0= 1.1988141e-11
 +  1:n_net2<0= 1.1988140e-11   1:n_net2<0= 1.1988146e-11
 +  1:n_net2<0= 1.1988146e-11   1:n_net2<0= 1.1988146e-11
 +  1:n_net2<0= 1.1988145e-11   1:n_net2<0= 1.1988145e-11
 +  1:n_net2<0= 1.1988145e-11   1:n_net2<0= 1.1988145e-11
 +  1:n_net2<0= 1.1988145e-11   1:n_net2<0= 1.1988141e-11
 +  1:n_net2<0= 1.1988145e-11   1:n_net2<0= 1.1988145e-11
 +  1:n_net2<0= 1.1988145e-11   1:n_net2<0= 1.1988145e-11
 +  1:n_net2<0= 1.1988145e-11   1:n_net2<0= 1.1988146e-11
 +  1:n_net2<0= 1.1988145e-11   1:n_net2<0= 1.1988145e-11
 +  1:n_net2<0= 1.1988141e-11   1:n_net2<0= 1.1988141e-11
 +  1:n_net2<0= 1.1988145e-11   1:n_net2<0= 1.1988145e-11
 +  1:n_net2<0= 1.1988145e-11   1:n_net2<0= 1.1988145e-11
 +  1:n_net2<0= 1.1988145e-11   1:n_net2<0= 1.1988143e-11
 +  1:n_net2<0= 1.1988144e-11   1:n_net2<0= 1.1988142e-11
 +  1:n_net2<0= 1.1988143e-11   1:n_net2<0= 1.1988145e-11
 +  1:n_net3<1=-4.5872249e-12   1:n_net3<1=-4.5872249e-12
 +  1:n_net3<1=-4.5872249e-12   1:n_net3<1=-4.5872249e-12
 +  1:n_net3<1=-4.5872249e-12   1:n_net3<1=-4.5872249e-12
 +  1:n_net3<1=-4.5872247e-12   1:n_net3<1=-4.5872246e-12
 +  1:n_net3<1=-4.5872251e-12   1:n_net3<1=-4.5872249e-12
 +  1:n_net3<1=-4.5872249e-12   1:n_net3<1=-4.5872250e-12
 +  1:n_net3<1=-4.5872249e-12   1:n_net3<1=-4.5872249e-12
 +  1:n_net3<1=-4.5872249e-12   1:n_net3<1=-4.5872249e-12
 +  1:n_net3<1=-4.5872249e-12   1:n_net3<1=-4.5872249e-12
 +  1:n_net3<1=-4.5872249e-12   1:n_net3<1=-4.5872249e-12
 +  1:n_net3<1=-4.5872249e-12   1:n_net3<1=-4.5872249e-12
 +  1:n_net3<1=-4.5872249e-12   1:n_net3<1=-4.5872249e-12
 +  1:n_net3<1=-4.5872249e-12   1:n_net3<1=-4.5872249e-12
 +  1:n_net3<1=-4.5872249e-12   1:n_net3<1=-4.5872249e-12
 +  1:n_net3<1=-4.5872249e-12   1:n_net3<1=-4.5872249e-12
 +  1:n_net3<1=-4.5872249e-12   1:n_net3<1=-4.5872249e-12
 +  1:n_net3<1=-4.5872249e-12   1:n_net3<0= 1.4966758e-11
 +  1:n_net3<0= 1.4966758e-11   1:n_net3<0= 1.4966757e-11
 +  1:n_net3<0= 1.4966757e-11   1:n_net3<0= 1.4966758e-11
 +  1:n_net3<0= 1.4966758e-11   1:n_net3<0= 1.4966757e-11
 +  1:n_net3<0= 1.4966757e-11   1:n_net3<0= 1.4966751e-11
 +  1:n_net3<0= 1.4966751e-11   1:n_net3<0= 1.4966750e-11
 +  1:n_net3<0= 1.4966758e-11   1:n_net3<0= 1.4966757e-11
 +  1:n_net3<0= 1.4966757e-11   1:n_net3<0= 1.4966757e-11
 +  1:n_net3<0= 1.4966757e-11   1:n_net3<0= 1.4966757e-11
 +  1:n_net3<0= 1.4966758e-11   1:n_net3<0= 1.4966757e-11
 +  1:n_net3<0= 1.4966757e-11   1:n_net3<0= 1.4966757e-11
 +  1:n_net3<0= 1.4966757e-11   1:n_net3<0= 1.4966757e-11
 +  1:n_net3<0= 1.4966757e-11   1:n_net3<0= 1.4966752e-11
 +  1:n_net3<0= 1.4966758e-11   1:n_net3<0= 1.4966758e-11
 +  1:n_net3<0= 1.4966757e-11   1:n_net3<0= 1.4966758e-11
 +  1:n_net3<0= 1.4966757e-11   1:n_net3<0= 1.4966758e-11
 +  1:n_net3<0= 1.4966757e-11   1:n_net3<0= 1.4966752e-11
 +  1:n_net3<0= 1.4966751e-11   1:n_net3<0= 1.4966757e-11
 +  1:n_net3<0= 1.4966757e-11   1:n_net3<0= 1.4966756e-11
 +  1:n_net3<0= 1.4966756e-11   1:n_net3<0= 1.4966753e-11
 +  1:n_net3<0= 1.4966752e-11   1:n_net3<0= 1.4966757e-11
 +  1:n_net4<2=-2.2856455e-12   1:n_net4<2=-2.2856455e-12
 +  1:n_net4<2=-2.2856455e-12   1:n_net4<2=-2.2856455e-12
 +  1:n_net4<2=-2.2856456e-12   1:n_net4<2=-2.2856456e-12
 +  1:n_net4<2=-2.2856453e-12   1:n_net4<2=-2.2856455e-12
 +  1:n_net4<2=-2.2856454e-12   1:n_net4<2=-2.2856455e-12
 +  1:n_net4<2=-2.2856455e-12   1:n_net4<2=-2.2856455e-12
 +  1:n_net4<2=-2.2856455e-12   1:n_net4<2=-2.2856455e-12
 +  1:n_net4<2=-2.2856455e-12   1:n_net4<2=-2.2856455e-12
 +  1:n_net4<2=-2.2856455e-12   1:n_net4<2=-2.2856454e-12
 +  1:n_net4<2=-2.2856455e-12   1:n_net4<2=-2.2856455e-12
 +  1:n_net4<2=-2.2856455e-12   1:n_net4<1= 4.2690578e-07
 +  1:n_net4<1= 4.2690578e-07   1:n_net4<1= 4.2690578e-07
 +  1:n_net4<1= 4.2690578e-07   1:n_net4<1= 4.2690578e-07
 +  1:n_net4<1= 4.2690578e-07   1:n_net4<1= 4.2690578e-07
 +  1:n_net4<1= 4.2690578e-07   1:n_net4<1= 4.2690579e-07
 +  1:n_net4<1= 4.2690576e-07   1:n_net4<1= 4.2690578e-07
 +  1:n_net4<1= 4.2690577e-07   1:n_net4<1= 4.2690578e-07
 +  1:n_net4<1= 4.2690578e-07   1:n_net4<1= 4.2690578e-07
 +  1:n_net4<1= 4.2690578e-07   1:n_net4<1= 4.2690578e-07
 +  1:n_net4<1= 4.2690578e-07   1:n_net4<1= 4.2690578e-07
 +  1:n_net4<1= 4.2690578e-07   1:n_net4<1= 4.2690578e-07
 +  1:n_net4<1= 4.2690578e-07   1:n_net4<1= 4.2690578e-07
 +  1:n_net4<1= 4.2690578e-07   1:n_net4<1= 4.2690578e-07
 +  1:n_net4<1= 4.2690578e-07   1:n_net4<1= 4.2690578e-07
 +  1:n_net4<1= 4.2690578e-07   1:n_net4<1= 4.2690578e-07
 +  1:n_net4<1= 4.2690578e-07   1:n_net4<1= 4.2690578e-07
 +  1:n_net4<1= 4.2690578e-07   1:n_net4<1= 4.2690578e-07
 +  1:n_net4<1= 4.2690578e-07   1:n_net4<1= 4.2690578e-07
 +  1:n_net4<1= 4.2690578e-07   1:n_net4<1= 4.2690578e-07
 +  1:n_net4<1= 4.2690578e-07   1:n_net4<1= 4.2690578e-07
 +  1:n_net4<0=-1.6934352e-12   1:n_net4<0=-1.6934352e-12
 +  1:n_net4<0=-1.6934352e-12   1:n_net4<0=-1.6934352e-12
 +  1:n_net4<0=-1.6934351e-12   1:n_net4<0=-1.6934350e-12
 +  1:n_net4<0=-1.6934353e-12   1:n_net4<0=-1.6934352e-12
 +  1:n_net4<0=-1.6934352e-12   1:n_net4<0=-1.6934352e-12
 +  1:n_net4<0=-1.6934351e-12   1:n_net4<0=-1.6934352e-12
 +  1:n_net4<0=-1.6934352e-12   1:n_net4<0=-1.6934352e-12
 +  1:n_net4<0=-1.6934352e-12   1:n_net4<0=-1.6934352e-12
 +  1:n_net4<0=-1.6934352e-12   1:n_net4<0=-1.6934352e-12
 +  1:n_net4<0=-1.6934352e-12   1:n_net4<0=-1.6934352e-12
 +  1:n_net4<0=-1.6934352e-12   1:n_net4<0=-1.6934352e-12
 +  1:n_net4<0=-1.6934352e-12   1:n_net7<2= 1.9832443e-07
 +  1:n_net7<2= 1.9832442e-07   1:n_net7<2= 1.9832428e-07
 +  1:n_net7<2= 1.9832428e-07   1:n_net7<2= 1.9832429e-07
 +  1:n_net7<2= 1.9832429e-07   1:n_net7<2= 1.9832429e-07
 +  1:n_net7<2= 1.9832442e-07   1:n_net7<2= 1.9832442e-07
 +  1:n_net7<2= 1.9832442e-07   1:n_net7<2= 1.9832442e-07
 +  1:n_net7<2= 1.9832428e-07   1:n_net7<2= 1.9832432e-07
 +  1:n_net7<2= 1.9832431e-07   1:n_net7<2= 1.9832431e-07
 +  1:n_net7<2= 1.9832435e-07   1:n_net7<2= 1.9832441e-07
 +  1:n_net7<1= 1.6432813e-04   1:n_net7<1= 1.6432813e-04
 +  1:n_net7<1= 1.6432814e-04   1:n_net7<1= 1.6432812e-04
 +  1:n_net7<1= 1.6432813e-04   1:n_net7<1= 1.6432813e-04
 +  1:n_net7<1= 1.6432813e-04   1:n_net7<1= 1.6432813e-04
 +  1:n_net7<1= 1.6432813e-04   1:n_net7<1= 1.6432813e-04
 +  1:n_net7<1= 1.6432813e-04   1:n_net7<1= 1.6432813e-04
 +  1:n_net7<1= 1.6432813e-04   1:n_net7<0= 2.2078403e-11
 +  1:n_net7<0= 2.2078394e-11   1:n_net7<0= 2.2078394e-11
 +  1:n_net7<0= 2.2078395e-11   1:n_net7<0= 2.2078395e-11
 +  1:n_net7<0= 2.2078395e-11   1:n_net7<0= 2.2078399e-11
 +  1:n_net7<0= 2.2078401e-11   1:n_net7<0= 2.2078401e-11
 +  1:n_net7<0= 2.2078399e-11   1:n_net7<0= 2.2078396e-11
 +  1:n_net7<0= 2.2078398e-11   1:n_vdd_c_= 2.0756941e-16
 +  1:n_vdd_c_= 3.1204638e-07   1:n_vdd_c_= 5.4819249e-14
 +  1:n_vdd_c_= 9.1348286e-03   1:n_vdd_c_= 1.0633296e-14
 +  1:n_vdd_c_= 1.0522985e-14   1:n_vdd_c_=-6.4198117e-19
 +  1:n_vdd_c_=-3.8495766e-19   1:n_vdd_c_= 2.3853689e-16
 +  1:n_vdd_c_= 3.0720487e-16   1:n_vdd_c_= 1.6450185e-19
 +  1:n_vdd_c_= 4.5261292e-07   1:n_vdd_c_= 7.1368239e-18
 +  1:n_vdd_c_= 4.5490167e-14   1:n_vdd_c_= 6.3160046e-14
 +  1:n_vdd_c_= 1.0313476e-04   1:n_vdd_c_= 1.8357696e-03
 +  1:n_vdd_c_= 1.6856669e-02   1:n_vdd_c_= 2.0759623e-16
 +  1:n_vdd_c_= 1.7940861e-14   1:n_vdd_c_= 5.2346219e-14
 +  1:n_vdd_c_= 3.1241137e-07   1:n_vdd_c_= 4.3142045e-05
 +  1:n_vdd_c_= 8.7603925e-03   1:n_vdd_c_= 5.4205999e-16
 +  1:n_vdd_c_= 6.9342436e-15   1:n_vdd_c_= 1.0522985e-14
 +  1:n_vdd_c_= 1.0522985e-14   1:n_vdd_c_= 1.0522985e-14
 +  1:n_vdd_c_= 1.0575384e-14   1:n_vdd_c_= 1.0522985e-14
 +  1:n_vdd_c_=-7.4248933e-20   1:n_vdd_c_=-1.1407223e-19
 +  1:n_vdd_c_= 4.0405118e-21   1:n_vdd_c_= 2.9696497e-17
 +  1:n_vdd_c_= 5.1273794e-17   1:n_vdd_c_= 8.4513778e-19
 +  1:n_vdd_c_= 1.4679951e-18   1:n_vdd_c_= 1.5074929e-16
 +  1:n_vdd_c_= 2.7347453e-19   1:n_vdd_c_= 1.8820239e-19
 +  1:n_vdd_c_= 2.0756938e-16   1:n_vdd_c_=-2.0627633e-19
 +  1:n_vdd_c_= 2.6602564e-19   1:n_vdd_c_= 1.0363489e-15
 +  1:n_vdd_c_= 9.1224737e-08   1:n_vdd_c_= 9.1223448e-08
 +  1:n_vdd_c_= 3.9562013e-08   1:n_vdd_c_= 5.1482941e-08
 +  1:n_vdd_c_= 7.1835681e-08   1:n_vdd_c_= 6.5328600e-17
 +  1:n_vdd_c_= 1.2193110e-16   1:n_vdd_c_= 1.2195503e-16
 +  1:n_vdd_c_= 2.0752465e-16   1:n_vdd_c_= 9.3982228e-17
 +  1:n_vdd_c_= 3.7156829e-07   1:n_vdd_c_= 3.7156672e-07
 +  1:n_vdd_c_= 3.1204753e-07   1:n_vdd_c_= 3.3150260e-07
 +  1:n_vdd_c_= 3.5211766e-07   1:n_vdd_c_= 2.3178285e-14
 +  1:n_vdd_c_= 4.3145271e-05   1:n_vdd_c_= 1.4037000e-19
 +  1:n_vdd_c_= 1.5202391e-18   1:n_vdd_c_=-2.3747003e-19
 +  1:n_vdd_c_= 4.2387659e-20   1:n_vdd_c_= 1.7151184e-07
 +  1:n_vdd_c_= 2.1198522e-07   1:n_vdd_c_=-2.6836120e-19
 +  1:n_vdd_c_=-2.3481293e-19   1:n_vdd_c_=-9.5861534e-20
 +  1:n_vdd_c_=-3.5677498e-19   1:n_vdd_c_=-5.2575876e-19
 +  1:n_vdd_c_= 9.3877076e-17   1:n_vdd_c_= 2.3172623e-07
 +  1:n_vdd_c_= 2.3172363e-07   1:n_vdd_c_= 1.9124966e-07
 +  1:n_vdd_c_= 4.1365543e-20   1:n_vdd_c_= 1.0259934e-19
 +  1:n_vdd_c_= 1.4474618e-19   1:n_vdd_c_= 5.2420271e-07
 +  1:n_vdd_c_= 8.4632420e-20   1:n_vdd_c_= 2.7332484e-19
 +  1:n_vdd_c_= 1.4570298e-19   1:n_vdd_c_= 8.7914625e-20
 +  1:n_vdd_c_= 6.5951849e-07   1:n_vdd_c_= 6.5901028e-07
 +  1:n_vdd_c_= 4.7294342e-07   1:n_vdd_c_= 6.9649136e-18
 +  1:n_vdd_c_= 9.7469275e-15   1:n_vdd_c_= 2.8812403e-14
 +  1:n_vdd_c_= 3.9620642e-14   1:n_vdd_c_= 5.4269154e-15
 +  1:n_vdd_c_= 2.0486878e-05   1:n_vdd_c_= 2.0486592e-05
 +  1:n_vdd_c_= 1.1469232e-05   1:n_vdd_c_= 1.6091873e-05
 +  1:n_vdd_c_= 1.2474674e-14   1:n_vdd_c_= 2.3301517e-14
 +  1:n_vdd_c_= 2.3323760e-14   1:n_vdd_c_= 3.9648539e-14
 +  1:n_vdd_c_= 8.4096919e-06   1:n_vdd_c_= 1.7951079e-14
 +  1:n_vdd_c_= 5.4476972e-16   1:n_vdd_c_= 5.4466748e-16
 +  1:n_vdd_c_= 2.0613009e-16   1:n_vdd_c_= 3.0732649e-16
 +  1:n_vdd_c_= 4.2671947e-16   1:n_vdd_c_= 8.4059697e-05
 +  1:n_vdd_c_= 8.4059095e-05   1:n_vdd_c_= 7.0507549e-05
 +  1:n_vdd_c_= 7.4914918e-05   1:n_vdd_c_= 7.9586759e-05
 +  1:n_vdd_c_= 3.8674424e-05   1:n_vdd_c_= 4.7842092e-05
[...]



 subckt   x_dut          x_dut          x_dut          x_dut         
 element      1:mxi5.xi9     1:mxi5.xi7     1:mxi5.xi7     1:mxi5.xi9
 model        0:pmos_rvt     0:pmos_rvt     0:pmos_rvt     0:pmos_rvt
 region   Subth          Subth          Subth          Subth         
  id       0.0000000e+00  1.7325950e-14  8.2642623e-15  0.0000000e+00
  ibs      0.0000000e+00  0.0000000e+00  0.0000000e+00  0.0000000e+00
  ibd      0.0000000e+00  0.0000000e+00  0.0000000e+00  0.0000000e+00
  vgs     -1.6944717e-12 -2.3265414e-05 -2.3819415e-05  1.6941208e-12
  vds     -8.0961984e-13  1.5386323e-05  7.3400583e-06  8.0986355e-13
  vbs     -1.0364512e-15 -3.2455770e-05 -3.5805204e-05  8.0858339e-13
  vth     -3.0809661e-01 -3.0809661e-01 -3.0809661e-01 -3.0809661e-01
  vdsat   -7.2245594e-02 -7.2245595e-02 -7.2245595e-02 -7.2245594e-02
  vod      3.0809661e-01  3.0805795e-01  3.0806545e-01  3.0809661e-01
  beta     5.8707994e-03  5.8707994e-03  5.8707994e-03  5.8707994e-03
  gam eff -1.2345679e-29 -1.2345679e-29 -1.2345679e-29 -1.2345679e-29
  gm       4.3211763e-20  6.6369201e-13  3.1657277e-13  6.0496469e-20
  gds      1.1247274e-09  1.1257302e-09  1.1257541e-09  1.1247274e-09
  gmb      0.0000000e+00  1.9803936e-19  9.4462261e-20  0.0000000e+00
  cdtot    3.3840739e-17  3.3840740e-17  3.3840740e-17  3.3840739e-17
  cgtot    6.7682216e-17  6.7682219e-17  6.7682218e-17  6.7682216e-17
  cstot    3.3840739e-17  3.3840739e-17  3.3840739e-17  3.3840739e-17
  cbtot    0.0000000e+00  0.0000000e+00  0.0000000e+00  0.0000000e+00
  cgs      3.3841108e-17  3.3841109e-17  3.3841109e-17  3.3841108e-17
  cgd      3.3841108e-17  3.3841110e-17  3.3841109e-17  3.3841108e-17



 subckt   x_dut          x_dut          x_dut          x_dut         
 element      1:mxi5.xi9     1:mxi5.xi8     1:mxi5.xi7     1:mxi5.xi7
 model        0:pmos_rvt     0:pmos_rvt     0:pmos_rvt     0:pmos_rvt
 region   Subth          Subth          Subth          Subth         
  id      -4.3211763e-21  4.3211763e-21  3.1976705e-19 -1.8575086e-14
  ibs      0.0000000e+00  0.0000000e+00  0.0000000e+00  0.0000000e+00
  ibd      0.0000000e+00  0.0000000e+00  0.0000000e+00  0.0000000e+00
  vgs     -4.6072996e-12 -2.8812403e-14  4.6661330e-06 -1.9857284e-05
  vds     -2.0177755e-12  2.7815821e-12  2.8494874e-10 -1.6507849e-05
  vbs     -2.0189301e-12 -2.8812403e-14 -2.8840517e-14 -5.2313053e-05
  vth     -3.0809661e-01 -3.0809661e-01 -3.0809661e-01 -3.0809661e-01
  vdsat   -7.2245594e-02 -7.2245594e-02 -7.2245593e-02 -7.2245594e-02
  vod      3.0809661e-01  3.0809661e-01  3.0810127e-01  3.0807675e-01
  beta     5.8707994e-03  5.8707994e-03  5.8707994e-03  5.8707994e-03
  gam eff -1.2345679e-29 -1.2345679e-29 -1.2345679e-29 -1.2345679e-29
  gm       6.0488738e-20  1.1234285e-19  1.2254284e-17  7.1154157e-13
  gds      1.1247274e-09  1.1247274e-09  1.1245264e-09  1.1248717e-09
  gmb      4.9390575e-26  4.9390575e-26  3.6549026e-24  2.1231784e-19
  cdtot    3.3840739e-17  3.3840739e-17  3.3840739e-17  3.3840739e-17
  cgtot    6.7682216e-17  6.7682216e-17  6.7682216e-17  6.7682217e-17
  cstot    3.3840739e-17  3.3840739e-17  3.3840739e-17  3.3840739e-17
  cbtot    0.0000000e+00  0.0000000e+00  0.0000000e+00  0.0000000e+00
  cgs      3.3841108e-17  3.3841108e-17  3.3841108e-17  3.3841109e-17
  cgd      3.3841108e-17  3.3841108e-17  3.3841108e-17  3.3841108e-17



 subckt   x_dut          x_dut          x_dut          x_dut         
 element      1:mxi5.xi9     1:mxi5.xi8     1:mxi5.xi7     1:mxi5.xi8
 model        0:pmos_rvt     0:pmos_rvt     0:pmos_rvt     0:pmos_rvt
 region   Subth          Subth          Subth          Subth         
  id       4.3211763e-21  4.3211763e-21 -9.9387056e-20  0.0000000e+00
  ibs      0.0000000e+00  0.0000000e+00  0.0000000e+00  0.0000000e+00
  ibd      0.0000000e+00  0.0000000e+00  0.0000000e+00  0.0000000e+00
  vgs     -8.0998235e-13 -5.0960399e-12  4.2662080e-07 -5.1010123e-12
  vds      2.0175311e-12  2.7880401e-12 -8.9169230e-11  2.7830677e-12
  vbs     -1.3989927e-15 -2.8103945e-12 -2.8497758e-10 -2.8153668e-12
  vth     -3.0809661e-01 -3.0809661e-01 -3.0809661e-01 -3.0809661e-01
  vdsat   -7.2245594e-02 -7.2245594e-02 -7.2245594e-02 -7.2245594e-02
  vod      3.0809661e-01  3.0809661e-01  3.0809703e-01  3.0809661e-01
  beta     5.8707994e-03  5.8707994e-03  5.8707994e-03  5.8707994e-03
  gam eff -1.2345679e-29 -1.2345679e-29 -1.2345679e-29 -1.2345679e-29
  gm       1.0370050e-19  1.2098521e-19  3.8715962e-18  1.2099294e-19
  gds      1.1247274e-09  1.1247274e-09  1.1247090e-09  1.1247274e-09
  gmb      4.9390575e-26  4.9390575e-26  1.1359832e-24  0.0000000e+00
  cdtot    3.3840739e-17  3.3840739e-17  3.3840739e-17  3.3840739e-17
  cgtot    6.7682216e-17  6.7682216e-17  6.7682216e-17  6.7682216e-17
  cstot    3.3840739e-17  3.3840739e-17  3.3840739e-17  3.3840739e-17
  cbtot    0.0000000e+00  0.0000000e+00  0.0000000e+00  0.0000000e+00
  cgs      3.3841108e-17  3.3841108e-17  3.3841108e-17  3.3841108e-17
  cgd      3.3841108e-17  3.3841108e-17  3.3841108e-17  3.3841108e-17



 subckt   x_dut          x_dut          x_dut          x_dut         
 element      1:mxi5.xi7     1:mxi5.xi8     1:mxi5.xi7     1:mxi5.xi7
 model        0:pmos_rvt     0:pmos_rvt     0:pmos_rvt     0:pmos_rvt
 region   Subth          Subth          Subth          Subth         
  id      -1.0370823e-19  4.3211763e-21  3.2408823e-19 -1.5972709e-14
  ibs      0.0000000e+00  0.0000000e+00  0.0000000e+00  0.0000000e+00
  ibd      0.0000000e+00  0.0000000e+00  0.0000000e+00  0.0000000e+00
  vgs      4.2662080e-07 -3.9620642e-14  4.6661329e-06 -3.4702346e-05
  vds     -8.9175482e-11  2.7757462e-12  2.8494419e-10 -1.4186391e-05
  vbs     -2.8498384e-10 -3.9620643e-14 -3.9648669e-14 -7.0507549e-05
  vth     -3.0809661e-01 -3.0809661e-01 -3.0809661e-01 -3.0809661e-01
  vdsat   -7.2245594e-02 -7.2245594e-02 -7.2245593e-02 -7.2245595e-02
  vod      3.0809703e-01  3.0809661e-01  3.0810127e-01  3.0806190e-01
  beta     5.8707994e-03  5.8707994e-03  5.8707994e-03  5.8707994e-03
  gam eff -1.2345679e-29 -1.2345679e-29 -1.2345679e-29 -1.2345679e-29
  gm       3.8370191e-18  9.5058149e-20  1.2271561e-17  6.1185418e-13
  gds      1.1247090e-09  1.1247274e-09  1.1245264e-09  1.1256117e-09
  gmb      1.1853738e-24  4.9390575e-26  3.7042932e-24  1.8257453e-19
  cdtot    3.3840739e-17  3.3840739e-17  3.3840739e-17  3.3840739e-17
  cgtot    6.7682216e-17  6.7682216e-17  6.7682216e-17  6.7682218e-17
  cstot    3.3840739e-17  3.3840739e-17  3.3840739e-17  3.3840740e-17
  cbtot    0.0000000e+00  0.0000000e+00  0.0000000e+00  0.0000000e+00
  cgs      3.3841108e-17  3.3841108e-17  3.3841108e-17  3.3841109e-17
  cgd      3.3841108e-17  3.3841108e-17  3.3841108e-17  3.3841109e-17



 subckt   x_dut          x_dut          x_dut          x_dut         
 element      1:mxi5.xi9     1:mxi5.xi1     1:mxi5.xi7     1:mxi5.xi7
 model        0:pmos_rvt     0:pmos_rvt     0:pmos_rvt     0:pmos_rvt
 region   Subth          Subth          Subth          Subth         
  id       0.0000000e+00  1.2151148e-17  1.2963529e-20  2.6235656e-14
  ibs      0.0000000e+00  0.0000000e+00  0.0000000e+00  0.0000000e+00
  ibd      0.0000000e+00  0.0000000e+00  0.0000000e+00  0.0000000e+00
  vgs      2.0170423e-12  3.7551149e-13  1.9576333e-10 -5.6310352e-05
  vds     -4.1601318e-12  1.0806424e-08  1.3057241e-11  2.3265600e-05
  vbs     -1.8881114e-15 -4.5492417e-14 -4.5007190e-14 -5.6321158e-05
  vth     -3.0809661e-01 -3.0809661e-01 -3.0809661e-01 -3.0809661e-01
  vdsat   -7.2245594e-02 -7.2245594e-02 -7.2245594e-02 -7.2245597e-02
  vod      3.0809661e-01  3.0809660e-01  3.0809661e-01  3.0801703e-01
  beta     5.8707994e-03  5.8707994e-03  5.8707994e-03  5.8707994e-03
  gam eff -1.2345679e-29 -1.2345679e-29 -1.2345679e-29 -1.2345679e-29
  gm       1.9013176e-19  4.6560230e-16  5.6172973e-19  1.0049889e-12
  gds      1.1247274e-09  1.1247274e-09  1.1247274e-09  1.1271561e-09
  gmb      0.0000000e+00  1.3888630e-22  1.4817173e-25  2.9988513e-19
  cdtot    3.3840739e-17  3.3840739e-17  3.3840739e-17  3.3840741e-17
  cgtot    6.7682216e-17  6.7682216e-17  6.7682216e-17  6.7682222e-17
  cstot    3.3840739e-17  3.3840739e-17  3.3840739e-17  3.3840740e-17
  cbtot    0.0000000e+00  0.0000000e+00  0.0000000e+00  0.0000000e+00
  cgs      3.3841108e-17  3.3841108e-17  3.3841108e-17  3.3841110e-17
  cgd      3.3841108e-17  3.3841108e-17  3.3841108e-17  3.3841111e-17



 subckt   x_dut          x_dut          x_dut          x_dut         
 element      1:mxi5.xi7     1:mxi5.xi9     1:mxi5.xi9     1:mxi5.xi7
 model        0:pmos_rvt     0:pmos_rvt     0:pmos_rvt     0:pmos_rvt
 region   Subth          Subth          Subth          Subth         
  id      -1.7180738e-14  8.6423527e-21  0.0000000e+00  2.7534014e-14
  ibs      0.0000000e+00  0.0000000e+00  0.0000000e+00  0.0000000e+00
  ibd      0.0000000e+00  0.0000000e+00  0.0000000e+00  0.0000000e+00
  vgs     -1.8593663e-05  1.7260493e-11 -4.1602528e-12 -5.9634958e-05
  vds     -1.5269055e-05  4.1603792e-12 -5.5120118e-13  2.4413331e-05
  vbs     -7.4914820e-05  4.1582437e-12 -2.0087826e-15 -5.9645764e-05
  vth     -3.0809661e-01 -3.0809661e-01 -3.0809661e-01 -3.0809661e-01
  vdsat   -7.2245594e-02 -7.2245594e-02 -7.2245594e-02 -7.2245597e-02
  vod      3.0807801e-01  3.0809661e-01  3.0809661e-01  3.0801256e-01
  beta     5.8707994e-03  5.8707994e-03  5.8707994e-03  5.8707994e-03
  gam eff -1.2345679e-29 -1.2345679e-29 -1.2345679e-29 -1.2345679e-29
  gm       6.5812931e-13  1.5554689e-19  8.6423527e-21  1.0547241e-12
  gds      1.1248706e-09  1.1247274e-09  1.1247274e-09  1.1272997e-09
  gmb      1.9638332e-19  9.8781151e-26  0.0000000e+00  3.1472680e-19
  cdtot    3.3840739e-17  3.3840739e-17  3.3840739e-17  3.3840741e-17
  cgtot    6.7682217e-17  6.7682216e-17  6.7682216e-17  6.7682222e-17
  cstot    3.3840739e-17  3.3840739e-17  3.3840739e-17  3.3840740e-17
  cbtot    0.0000000e+00  0.0000000e+00  0.0000000e+00  0.0000000e+00
  cgs      3.3841109e-17  3.3841108e-17  3.3841108e-17  3.3841111e-17
  cgd      3.3841108e-17  3.3841108e-17  3.3841108e-17  3.3841112e-17



 subckt   x_dut          x_dut          x_dut          x_dut         
 element      1:mxi5.xi9     1:mxi5.xi1     1:mxi5.xi7     1:mxi5.xi9
 model        0:pmos_rvt     0:pmos_rvt     0:pmos_rvt     0:pmos_rvt
 region   Subth          Subth          Subth          Subth         
  id       4.3211763e-21  2.2306344e-16 -1.2013992e-15  4.3211763e-21
  ibs      0.0000000e+00  0.0000000e+00  0.0000000e+00  0.0000000e+00
  ibd      0.0000000e+00  0.0000000e+00  0.0000000e+00  0.0000000e+00
  vgs      1.3651441e-11  5.5352384e-12 -6.7329553e-05  2.0161611e-12
  vds      5.5144881e-13  1.9832422e-07 -1.0654371e-06  3.1783330e-12
  vbs      5.4919240e-13 -6.3201354e-14 -1.0313476e-04 -2.7692917e-15
  vth     -3.0809661e-01 -3.0809661e-01 -3.0809661e-01 -3.0809661e-01
  vdsat   -7.2245594e-02 -7.2245594e-02 -7.2245596e-02 -7.2245594e-02
  vod      3.0809661e-01  3.0809641e-01  3.0802928e-01  3.0809661e-01
  beta     5.8707994e-03  5.8707994e-03  5.8707994e-03  5.8707994e-03
  gam eff -1.2345679e-29 -1.2345679e-29 -1.2345679e-29 -1.2345679e-29
  gm       6.0488738e-20  8.5446234e-15  4.6020952e-14  1.2962756e-19
  gds      1.1247274e-09  1.1247274e-09  1.1275859e-09  1.1247274e-09
  gmb      4.9390575e-26  2.5495911e-21  1.3732861e-20  4.9390575e-26
  cdtot    3.3840739e-17  3.3840739e-17  3.3840741e-17  3.3840739e-17
  cgtot    6.7682216e-17  6.7682216e-17  6.7682222e-17  6.7682216e-17
  cstot    3.3840739e-17  3.3840739e-17  3.3840741e-17  3.3840739e-17
  cbtot    0.0000000e+00  0.0000000e+00  0.0000000e+00  0.0000000e+00
  cgs      3.3841108e-17  3.3841108e-17  3.3841111e-17  3.3841108e-17
  cgd      3.3841108e-17  3.3841108e-17  3.3841111e-17  3.3841108e-17



 subckt   x_dut          x_dut          x_dut          x_dut         
 element      1:mxi5.xi7     1:mxi5.xi7     1:mxi5.xi9     1:mxi5.xi9
 model        0:pmos_rvt     0:pmos_rvt     0:pmos_rvt     0:pmos_rvt
 region   Subth          Subth          Subth          Subth         
  id       7.5306953e-14 -6.2210131e-14 -4.3211763e-21 -2.1605882e-20
  ibs      0.0000000e+00  0.0000000e+00  0.0000000e+00  0.0000000e+00
  ibd      0.0000000e+00  0.0000000e+00  0.0000000e+00  0.0000000e+00
  vgs     -4.5748164e-05 -1.0468238e-04 -7.3393465e-12 -2.2627585e-11
  vds      6.6753086e-05 -5.5148148e-05 -3.1778809e-12 -2.2075462e-11
  vbs     -1.0206932e-04 -1.6432814e-04 -3.1811023e-12 -2.2078393e-11
  vth     -3.0809661e-01 -3.0809661e-01 -3.0809661e-01 -3.0809661e-01
  vdsat   -7.2245598e-02 -7.2245598e-02 -7.2245594e-02 -7.2245594e-02
  vod      3.0798410e-01  3.0799192e-01  3.0809661e-01  3.0809661e-01
  beta     5.8707994e-03  5.8707994e-03  5.8707994e-03  5.8707994e-03
  gam eff -1.2345679e-29 -1.2345679e-29 -1.2345679e-29 -1.2345679e-29
  gm       2.8847252e-12  2.3830352e-12  1.6419697e-19  9.4197779e-19
  gds      1.1267002e-09  1.1268636e-09  1.1247274e-09  1.1247274e-09
  gmb      8.6083290e-19  7.1112394e-19  4.9390575e-26  2.4695288e-25
  cdtot    3.3840742e-17  3.3840740e-17  3.3840739e-17  3.3840739e-17
  cgtot    6.7682223e-17  6.7682223e-17  6.7682216e-17  6.7682216e-17
  cstot    3.3840740e-17  3.3840742e-17  3.3840739e-17  3.3840739e-17
  cbtot    0.0000000e+00  0.0000000e+00  0.0000000e+00  0.0000000e+00
  cgs      3.3841110e-17  3.3841112e-17  3.3841108e-17  3.3841108e-17
  cgd      3.3841113e-17  3.3841110e-17  3.3841108e-17  3.3841108e-17



 subckt   x_dut          x_dut          x_dut          x_dut         
 element      1:mxi5.xi7     1:mxi5.xi9     1:mxi6.xi2     1:mxi6.xi1
 model        0:pmos_rvt     0:pmos_rvt     0:pmos_rvt     0:pmos_rvt
 region   Subth          Subth          Subth          Subth         
  id      -1.8506049e-13  2.5927058e-20  1.6761474e-12  1.2227717e-12
  ibs      0.0000000e+00  0.0000000e+00  0.0000000e+00  0.0000000e+00
  ibd      0.0000000e+00  0.0000000e+00  0.0000000e+00  0.0000000e+00
  vgs     -2.2589105e-04  3.1729822e-12 -1.8355713e-03 -1.6714414e-03
  vds     -1.6363223e-04  2.2070273e-11  1.3533986e-03  1.0003359e-03
  vbs     -3.2796036e-04 -8.1203760e-15 -1.8357696e-03 -1.8357696e-03
  vth     -3.0809660e-01 -3.0809661e-01 -3.0809635e-01 -3.0809647e-01
  vdsat   -7.2245602e-02 -7.2245594e-02 -7.2245723e-02 -7.2245701e-02
  vod      3.0787071e-01  3.0809661e-01  3.0490738e-01  3.0542469e-01
  beta     5.8707994e-03  5.8707994e-03  5.8707994e-03  5.8707994e-03
  gam eff -1.2345679e-29 -1.2345679e-29 -1.2345679e-29 -1.2345679e-29
  gm       7.0889673e-12  9.4197006e-19  6.4206336e-11  4.6839432e-11
  gds      1.1274131e-09  1.1247274e-09  1.2066139e-09  1.1990772e-09
  gmb      2.1155903e-18  2.9634345e-25  1.9192433e-17  1.3999358e-17
  cdtot    3.3840740e-17  3.3840739e-17  3.3840835e-17  3.3840819e-17
  cgtot    6.7682228e-17  6.7682216e-17  6.7682441e-17  6.7682409e-17
  cstot    3.3840745e-17  3.3840739e-17  3.3840792e-17  3.3840787e-17
  cbtot    0.0000000e+00  0.0000000e+00  0.0000000e+00  0.0000000e+00
  cgs      3.3841118e-17  3.3841108e-17  3.3841188e-17  3.3841181e-17
  cgd      3.3841111e-17  3.3841108e-17  3.3841253e-17  3.3841228e-17



 subckt   x_dut          x_dut          x_dut          x_dut         
 element      1:mxi6.xi0     1:mxi6.xi2     1:mxi6.xi1     1:mxi6.xi2
 model        0:pmos_rvt     0:pmos_rvt     0:pmos_rvt     0:pmos_rvt
 region   Subth          Subth          Subth          Saturation    
  id       7.9511373e-16 -2.8000046e-12 -3.2455998e-12  1.5319477e-04
  ibs      0.0000000e+00  0.0000000e+00  0.0000000e+00  0.0000000e+00
  ibd      0.0000000e+00  0.0000000e+00  0.0000000e+00  0.0000000e+00
  vgs      2.2001473e-11 -5.3037433e-03 -5.3037432e-03 -1.3695870e-02
  vds      7.0692945e-07 -2.1152820e-03 -2.4683447e-03  8.7352676e-01
  vbs     -7.6930857e-14 -5.3044502e-03 -5.3044502e-03 -1.6885038e-02
  vth     -3.0809661e-01 -3.0809599e-01 -3.0809576e-01 -2.8653943e-01
  vdsat   -7.2245594e-02 -7.2245818e-02 -7.2245818e-02 -5.7163078e-01
  vod      3.0809590e-01  3.0279224e-01  3.0279202e-01 -6.0068321e-01
  beta     5.8707994e-03  5.8707994e-03  5.8707994e-03  5.8707994e-03
  gam eff -1.2345679e-29 -1.2345679e-29 -1.2345679e-29 -1.2345679e-29
  gm       3.0457832e-14  1.0725599e-10  1.2432488e-10  1.8907439e-04
  gds      1.1247274e-09  1.2706790e-09  1.2535269e-09  5.4625501e-05
  gmb      9.0880657e-21  3.2100714e-17  3.7204675e-17  2.3231347e-11
  cdtot    3.3840739e-17  3.3840834e-17  3.3840822e-17  9.7844738e-17
  cgtot    6.7682216e-17  6.7682610e-17  6.7682593e-17  1.8219000e-16
  cstot    3.3840739e-17  3.3840906e-17  3.3840906e-17  3.2126106e-17
  cbtot    0.0000000e+00  0.0000000e+00  0.0000000e+00  0.0000000e+00
  cgs      3.3841108e-17  3.3841360e-17  3.3841360e-17  3.0224750e-17
  cgd      3.3841108e-17  3.3841250e-17  3.3841233e-17  1.5196525e-16



 subckt   x_dut          x_dut         
 element      1:mxi6.xi1     1:mxi6.xi4
 model        0:pmos_rvt     0:pmos_rvt
 region   Subth          Subth         
  id      -1.3410339e-11  4.7532940e-20
  ibs      0.0000000e+00  0.0000000e+00
  ibd      0.0000000e+00  0.0000000e+00
  vgs     -7.9257547e-03 -3.6301245e-16
  vds     -1.0761859e-02  4.3797910e-11
  vbs     -1.0761860e-02 -1.0885998e-14
  vth     -3.0808063e-01 -3.0809661e-01
  vdsat   -7.2245948e-02 -7.2245594e-02
  vod      3.0015488e-01  3.0809661e-01
  beta     5.8707994e-03  5.8707994e-03
  gam eff -1.2345679e-29 -1.2345679e-29
  gm       5.1369207e-10  1.8925902e-18
  gds      1.0008884e-09  1.1247274e-09
  gmb      1.5389757e-16  5.4329633e-25
  cdtot    3.3840653e-17  3.3840739e-17
  cgtot    6.7682498e-17  6.7682216e-17
  cstot    3.3841009e-17  3.3840739e-17
  cbtot    0.0000000e+00  0.0000000e+00
  cgs      3.3841521e-17  3.3841108e-17
  cgd      3.3840977e-17  3.3841108e-17



  **warning** no probe statements specified, thus .tr# omitted

          ***** job concluded
 ******  
 **test

 ****** job statistics summary tnom=  25.000 temp=  25.000 ******
  
 ******  Machine Information  ******
 CPU:
 model name	: Intel(R) Core(TM) i5-14600
 cpu MHz	: 800.000
 CPU(s)		: 20
  
 OS:
 Linux version 6.1.0-41-amd64 (debian-kernel@lists.debian.org) (gcc-12 (Debian 12.2.0-14+deb12u1) 12.2.0, GNU ld (GNU Binutils for Debian) 2.40) #1 SMP PREEMPT_DYNAMIC Debian 6.1.158-1 (2025-11-09)

 System loadavg : 0.19 0.19 0.21 1/1061 1062652


  ******  PrimeSim HSPICE Threads Information  ******

  Command Line Threads Count :     1
  Available CPU Count        :    20
  Actual Threads Count       :     1


  ******  Circuit Statistics  ******
  # nodes       =    6413 # elements   =   15138
  # resistors   =    6560 # capacitors =    8239 # inductors   =       0
  # mutual_inds =       0 # vccs       =       0 # vcvs        =       0
  # cccs        =       0 # ccvs       =       0 # volt_srcs   =      13
  # curr_srcs   =       0 # diodes     =       0 # bjts        =       0
  # jfets       =       0 # mosfets    =     326 # U elements  =       0
  # T elements  =       0 # W elements =       0 # B elements  =       0
  # S elements  =       0 # P elements =       0 # va device   =       0
  # vector_srcs =       0 # N elements =       0


  ******  Runtime Statistics (seconds)  ******

  analysis           time    # points   tot. iter  conv.iter
  op point           0.15           1          16
  transient          0.40         901         639         287 rev=        37
  readin             0.10
  errchk             0.04
  setup              0.06
  output             0.00


           peak memory used        541.37 megabytes
           total cpu time            0.73 seconds
           total elapsed time        0.77 seconds
           job started at     12:50:33 12/12/2025
           job ended   at     12:50:34 12/12/2025

>info:         ***** hspice job concluded
           job total runtime         0.77 seconds


 lic: Release hspice token(s) 
 lic: total license checkout elapse time:        0.03(s)
